SOCKS4 Proxy list updated at 2021-09-17 10:00:01 GMT+7
Website=https://openproxylist.com
Support us:
BTC: 1GeZeEnrV4SibfS5yDwuzY3w7n94ZE3zMQ
ETH: 0x6dce795c56d1485213d689ef98277c9fb7e7a6d2
XMR: 8AGZWnqriYzQjq7hzoTzVWbQNvGeke8AHdk1tVHFqUtfX1oqDY632kwaSnZZqEtFzD4fZN3CUfC7JXy5eM5MBfhbFmcB3h3
LTC: MAG1cWWEpgdviZChWvr2oyuxD61JPJ1Q43
Fromat: CountryFlag IP:PORT ResponseTime CountryCode [ISP]

葛 116.251.216.53:5678 3690ms SG [OneAsiaHost]
吼 194.44.85.38:1088 2528ms UA [State Enterprise Scientific and Telecommunication Centre "Ukrainian Academic an]
 103.169.130.235:5678 612ms ID [PT Lancar Artha Media Data]
 101.255.118.154:1080 542ms ID [PT Remala Abadi]
 202.91.81.94:5678 1720ms IN [Swift-Online]
拆 203.23.199.160:5678 1529ms MN [MCS Com Co Ltd]
ю 45.179.113.31:5678 3844ms BR [Paulo Xavier Braga Andrade]
筐 41.57.156.148:5678 6119ms ZA [SCR Wbad]
吼 50.228.102.10:5678 2640ms US [Comcast Cable Communications, LLC]
 117.212.92.149:8291 1728ms IN [BSNL Internet]
 36.65.104.9:4153 1999ms ID [PT. Telekomunikasi Indonesia]
吼 149.20.221.46:5678 3531ms US [Premier Communications]
佛 212.34.110.115:4145 2965ms RU [Rostelecom networks]
ю 77.221.15.68:4153 7924ms BA [TELEMACH BH]
吼 193.151.164.51:5678 3253ms UA [UnionCOM Ltd]
火 45.230.45.46:4153 4767ms VE [Gandalf Comunicaciones C.A.]
ю 201.18.91.34:4153 4580ms BR [Telemar Norte Leste S.A.]
ю 45.161.222.241:5678 4699ms BR [Click NET Connect]
ю 177.125.207.140:4145 7411ms BR [FP Telecomunicacoes Ltda]
 115.243.111.42:1088 4384ms IN [Reliance Jio Infocomm Limited]
ю 179.66.106.81:4145 3754ms BR [Telemar Norte Leste S.A.]
ю 191.248.141.145:4145 7447ms BR [TELEFNICA BRASIL S.A]
筐 45.220.0.29:5678 4769ms ZA [Level]
ю 177.86.241.13:4145 3702ms BR [SNI Telecom]
 117.252.27.156:5678 5545ms IN [BSNL Internet]
桂 182.52.19.176:3629 1673ms TH [TOT Public Company Limited]
 203.115.123.164:9999 2717ms IN [PRIMENET]
 24.122.35.193:4153 2894ms CA [Cogeco Connexion inc]
 27.50.23.206:51372 599ms ID [PT. Mora Telematika Indonesia]
 2.188.220.137:5678 4308ms IR [Dade Pardazi Respina PJSC]
佛 31.192.140.113:4145 3012ms RU [TIS-DIALOG]
梆 202.62.57.40:4145 889ms KH [COGETEL Co., Ltd]
吼 12.7.109.74:10404 5136ms US [AIRESPRING-ADT SYSTEMS, INC.]
筐 41.71.24.142:4153 3706ms ZA [RSAWEB (PTY) LTD]
 117.212.194.216:5678 3411ms IN [BSNL Internet]
 181.165.164.49:4153 5657ms AR [Telecom Argentina S.A]
 201.206.141.102:6969 3825ms CR [Instituto Costarricense de Electricidad y Telecom.]
桂 183.89.91.21:5678 3845ms TH [Triple T Internet Company Limited]
梆 95.87.73.8:4145 3397ms KG [saima ro]
 83.35.52.20:4145 2968ms ES [Telefonica de Espana SAU]
 84.2.233.239:4153 2846ms HU [Magyar Telekom]
叼 154.198.4.37:5678 807ms PH [Suniway Group Limited]
叼 45.146.13.219:5678 3371ms PS [JETNET4]
 194.71.145.94:5678 4161ms FI [IP-Connect AB]
火 186.24.50.164:4145 3352ms VE [TELEFONICA VENEZOLANA, C.A.]
 185.13.223.120:4145 3045ms IT [jcomWIFI]
ю 200.186.231.200:8291 5079ms BR [CENTURYLINK COMUNICAES DO BRASIL LTDA]
 45.5.119.84:4153 2861ms GT [Inversiones Grajeda Andrade S.A]
ю 179.96.251.161:5678 3563ms BR [Center Prestadora Servios S/C Ltda]
拆 189.206.252.129:31337 2950ms MX [Alestra, S. de R.L. de C.V.]
 46.209.47.104:3629 3817ms IR [Respina]
吼 176.114.35.88:4145 3981ms UA [Telecommunication company FEONET+ LLC]
 181.28.48.150:5678 3942ms AR [Telecom Argentina S.A]
ю 201.19.200.192:5678 5153ms BR [Telemar Norte Leste S.A.]
 117.204.253.7:5678 2079ms IN [Bharat Sanchar Nigam Ltd]
 45.224.22.198:5678 3559ms EC [Nedetel S.A]
ю 189.125.22.10:5678 3937ms BR [Level 3 Communications, Inc.]
桂 14.207.25.93:4153 910ms TH [Triple T Internet Company Limited]
仇 182.93.84.94:5678 2505ms NP [Subisu D17]
 103.111.29.106:5678 552ms ID [ICONPLN]
叼 176.115.15.198:5678 4890ms PL [PHU Classcom Sp. z o.o.]
 37.34.75.27:4145 3820ms IT [FASTCON]
ю 45.169.73.146:5678 3868ms BR [Uversa Telecomunicacoes Eirele]
 178.239.150.235:5678 4436ms IR [TRL]
ю 185.16.14.96:5678 5404ms BA [DASTO Semtel doo]
叼 62.133.132.228:4153 3191ms PL [Spoldzielnia Telekomunikacyjna OST]
 202.138.242.6:38373 987ms ID [PT Melvar Lintasnusa]
吼 46.173.76.23:5678 3721ms UA [AXILan]
吼 46.33.36.19:5678 6631ms UA [TV Company "Black Sea" Ltd]
 94.23.83.149:4153 3251ms ES [OVH ISP]
 36.95.139.161:5678 1012ms ID [PT. Telekomunikasi Indonesia]
 178.156.62.185:5678 6101ms ES [ServiHosting Networks S.L.]
 45.150.218.156:5678 2909ms ES [Borecom Networks]
 185.83.160.227:5678 5494ms ES [Wifi Intersur S.L.]
 36.95.173.194:5678 535ms ID [PT. Telekomunikasi Indonesia]
吼 185.244.158.248:3629 3708ms UA [Stargroup LLC]
 45.162.78.213:5678 3155ms CO [Internexa S.a. E.S.P]
吼 31.135.118.235:4153 3559ms UA [Ltd. "Cypher"]
 147.75.113.186:1080 3424ms CO [TV AZTECA SUCURSAL COLOMBIA]
佛 212.200.42.70:3629 2959ms RS [TELEKOM SRBIJA a.d.]
 83.149.165.27:1088 3773ms IT [Estracom SPA]
葛 185.161.39.17:5678 4317ms SC [Atrin Communications and Information Technology Co.]
 103.162.54.36:5678 2526ms ID [PT Pratama Asia Globalindo]
 36.92.39.51:5678 948ms ID [Telekomunikasi Indonesia]
佛 178.57.100.70:3629 2935ms RU [SEVER-TELECOM]
ю 31.13.198.149:10801 2960ms BG [Ultracom]
吼 78.30.232.4:3629 3606ms UA [Lancom Ltd.]
吼 78.30.227.3:3629 3699ms UA [Lancom Ltd.]
 118.137.109.91:5678 1918ms ID [Linknet-Fastnet ASN]
叼 91.227.105.5:5678 3190ms PL [DARIUSZ WESOLOWSKI trading as PROMEDIA NOWICKI WESOLOWSKI Sp.J]
叼 90.156.6.97:5678 3352ms PL [KOM]
佛 46.34.149.142:3629 4345ms RU ["OBIT" Ltd.]
吼 31.42.70.194:5678 2954ms UA [Vostok Ltd.]
吼 12.250.94.6:5678 3884ms US [AT&T Services]
佛 83.97.106.117:3629 4160ms RU [Trytek Internet provider]
 202.77.114.110:39148 720ms ID [LINKNET]
佛 5.227.126.179:5678 3811ms RU [MTS PJSC]
 190.152.221.70:43521 3379ms EC [Corporacion Nacional De Telecomunicaciones - CNT EP]
 36.80.36.57:30874 4299ms ID [PT. TELKOM INDONESIA]
 190.211.115.66:32298 3835ms CR [Cooperativa de Electrificaci贸n Rural de San Carlos R.L. (Coopelesca R.L.)]
 202.4.127.144:8291 1194ms  []
别 80.232.217.118:4153 2904ms LV [LATTELEKOM]
ю 45.231.139.223:1080 4874ms BR [TVC Servios de Comunicao Ltda - ME]
 213.164.120.144:7899 2539ms  []
叼 45.130.97.58:5678 4110ms PS [SpeedClick for Information Technology and Communication Ltd]
 143.202.139.46:4153 3562ms AR [Infosport SA]
葛 188.121.181.143:5678 4392ms SK [RadioLAN spol. s r.o.]
 62.89.31.164:5678 3079ms AM [GNC-Alfa CJSC]
 5.128.223.90:3629 6674ms  []
 27.131.168.193:3629 1300ms  []
拆 38.65.132.199:5678 4993ms MX [Cogent Communications]
佛 46.149.34.206:3629 3953ms RU [Koltushsky Internet Ltd]
桂 27.131.179.128:3629 4259ms TH [KIRZ Company Limited]
ю 45.226.0.17:4153 4028ms BR [Web - Link Telecomunica??es e Engenharia]
 103.134.184.134:5430 3819ms ID [PT. PARSAORAN GLOBAL DATATRANS - NAP]
ю 177.38.83.198:5678 6157ms BR [ZAP BL TELECOMUNICACOES LTDA]
ю 177.66.221.255:5678 3868ms BR [Nova Rede de Telecomunica??es Ltda]
叼 200.46.203.42:5678 4502ms PA [Cable Onda]
 170.81.81.154:1080 3828ms  []
 103.131.97.146:5678 884ms  []
 80.91.120.61:4145 3521ms AL [Abissnet ISP]
ю 200.167.187.242:5678 4100ms BR [Claro S.A]
吼 78.27.180.162:5678 2803ms UA [Domashnya Merezha, LLC]
 91.83.42.1:44550 2725ms HU [Invitech ICT Services Kft.]
吼 195.39.243.198:3629 3804ms UA [Lambda LLC]
 117.102.101.52:5678 635ms ID [Biznet Networks]
ю 177.38.83.57:5678 6896ms BR [ZAP BL TELECOMUNICACOES LTDA]
 37.152.162.103:4153 3546ms IR [Rahanet Zanjan Co. (Private Joint-Stock)]
 193.110.79.60:5678 3688ms  []
 213.59.156.59:5678 3983ms  []
 91.123.219.19:5678 3899ms  []
 118.92.50.78:5678 2700ms  []
吼 97.105.14.13:5678 3443ms US [Spectrum]
ю 177.38.83.204:5678 3674ms BR [ZAP BL TELECOMUNICACOES LTDA]
ю 179.208.205.157:4153 4104ms BR [Claro S.A.]
 103.122.84.27:5678 2561ms  []
 122.166.10.225:5678 2067ms  []
ю 190.109.99.85:5678 6948ms BR [E.C.E BANDA LARGA TELECOMUNICAES LTDA - ME]
吼 8.21.123.90:5678 7089ms US [Horizon Telcom Inc.]
筐 41.162.91.202:5678 5164ms ZA [Neotel GAU]
ю 179.108.48.34:41363 3552ms BR [Natel Telecom Ltda. - ME]
ю 59.152.104.193:3629 1018ms BD [Race Online Ltd.]
 36.92.143.185:4153 3988ms  []
 36.92.40.249:5678 3619ms  []
 36.95.154.11:5678 712ms ID [PT. Telekomunikasi Indonesia]
火 222.253.41.96:5678 769ms VN [VietNam Post and Telecom Corporation]
 138.0.229.232:4153 4334ms  []
 41.160.238.106:5678 5304ms  []
ю 177.11.84.11:5678 3878ms BR [Minas Turbo Provedor de Internet]
 27.147.225.170:5678 1076ms  []
叼 122.52.218.2:5678 6338ms PH [Philippine Long Distance Telephone Co.]
吼 95.47.56.127:5678 3996ms UA [Servisnet Ltd.]
吼 208.105.123.219:5678 3882ms US [Spectrum]
 14.248.94.32:5678 821ms  []
 5.1.104.66:33041 3470ms IQ [HRiNS network]
 103.83.109.231:4145 1553ms  []
ю 213.91.182.191:5678 2867ms BG [BTC-NET Ltd.]
 24.203.247.55:5678 2991ms CA [Le Groupe Videotron Ltee]
佛 79.122.179.63:5678 3959ms RU [Enforta]
 181.41.254.5:4153 6142ms AR [Cooperativa Batan de Obras y Serv. Publicos Ltda]
 170.249.32.115:5678 5987ms  []
 131.255.124.209:4145 5085ms  []
梆 58.97.209.160:5678 840ms KH [OpenNet ISP Cambodia]
 83.218.186.22:5678 5370ms AT [myNet GmbH]
 185.122.52.80:5678 2993ms  []
火 170.246.77.48:5678 4393ms VE [Net Uno, C.A.]
ю 170.233.109.58:5678 4292ms BR [GS TELECOMUNICACOES LTDA]
 114.134.187.104:5678 2102ms  []
 45.87.90.25:5678 3754ms  []
 36.95.154.43:5678 908ms ID [PT. Telekomunikasi Indonesia]
 46.141.30.158:5678 2692ms  []
 203.98.94.45:5678 2481ms AU [SIS Group Pty Ltd]
 147.231.95.88:5678 3253ms CZ [TUL-TCZ + CAS-TCZ]
 200.1.183.140:5678 4097ms  []
仇 118.91.162.162:5678 2333ms NP [Websurfer Nepal Communication System Pvt. Ltd]
 190.92.25.125:5678 4097ms HN [Cablecolor S.A.]
 186.103.224.226:5678 4549ms  []
 69.5.211.154:5678 3801ms  []
 176.115.172.42:5678 3962ms  []
 14.102.91.6:5678 2830ms IN [World Phone Internet Services Pvt Ltd]
 200.35.187.219:5678 3311ms GT [Navega.com S.A.]
吼 41.202.230.202:5678 4192ms UG [Customer Point TO Points]
 31.217.221.75:5678 6000ms AT [Peter Rauter GmbH]
 38.113.171.110:5678 6424ms CA [Cogent Communications]
 14.248.80.34:5678 914ms  []
 202.123.183.14:5678 826ms  []
 64.33.227.17:5678 2551ms  []
桂 182.52.113.238:4153 875ms TH [TOT Public Company Limited]
叼 190.61.127.53:5678 7415ms PA [Ufinet Panama S.A.]
桂 185.166.24.62:5678 3883ms TR [Online Company for Technological Information]
 36.89.57.2:5678 838ms ID [PT. Telekomunikasi Indonesia]
 117.241.169.121:5678 1457ms  []
 83.171.98.69:5678 2987ms  []
吼 50.81.98.220:5678 3762ms US [Mediacom Communications]
ю 177.84.152.40:5678 5764ms BR [Sempre Telecomunicacoes Ltda]
 119.235.50.5:4145 1089ms IN [VAINAVI INDUSTIES LTD, INTERNET SERVICE PROVIDER, INDIA]
别 78.61.27.207:5678 3000ms LT [Telia Lietuva]
吼 136.25.2.93:5678 5385ms US [Webpass Inc.]
佛 5.183.71.203:1080 3142ms RU [CrystalNET Plus]
桂 27.254.113.66:5678 4110ms TH [MicrothaiPlus2]
叼 80.52.223.98:5678 3070ms PL [Orange Polska Spolka Akcyjna]
火 14.165.196.235:5678 1864ms VN [VNPT-VNNIC]
 182.76.42.10:5678 1347ms IN [Bharti Airtel]
佛 82.117.204.174:5678 3022ms RS [Serbia BroadBand]
 195.205.33.237:5678 2699ms  []
 115.242.133.118:5678 816ms IN [Reliance Jio Infocomm Limited]
吼 178.210.131.61:5678 2709ms UA [TELCOM]
 212.96.167.109:5678 3032ms  []
 61.1.110.169:5678 6658ms IN [Bharat Sanchar Nigam Ltd]
金 46.19.231.50:5678 4517ms XK [Kujtesa Network]
 186.83.91.247:5678 4559ms CO [Telmex Colombia S.A.]
 1.186.213.67:5678 2331ms IN [D-VoiS Broadband Private Limited]
吼 71.167.56.3:5678 2473ms US [MCI Communications Services, Inc. d/b/a Verizon Business]
吼 200.108.242.222:4153 4958ms UY [Tecnowind S.A.]
ю 130.185.213.146:5678 5918ms BG [Optinet Ltd]
 182.16.166.166:5678 929ms ID [SOLUSINET]
 70.62.51.242:5678 5658ms  []
 195.28.14.51:1080 4768ms  []
桂 88.255.218.17:1080 3408ms TR [Turk Telekomunikasyon Anonim Sirketi]
 93.182.76.244:5678 3198ms  []
桂 213.74.58.60:5678 3335ms TR [Tellcom Iletisim Hizmetleri A.S.]
 109.235.7.160:5678 2882ms CZ [AIRWEB, spol. s r.o.]
 24.192.151.145:5678 5493ms  []
吼 194.28.91.10:5678 2879ms UA [Agronet public network]
 190.252.104.74:5678 3737ms CO [Telebucaramanga S.a. E.S.P.]
 122.54.20.50:5678 3983ms  []
 202.56.164.174:5678 4158ms ID [PT Lintas Data Prima]
叼 37.130.41.172:5678 4251ms PL ["InterKAM" S.C]
ю 177.5.231.18:5678 4718ms BR [Brasil Telecom S/A - Filial Distrito Federal]
ю 91.191.62.27:5678 7482ms BA [DASTO semtel d.o.o.]
 82.137.217.192:5678 3655ms  []
佛 185.54.238.208:4153 3348ms RU [Sannikov Kirill Vladimirovich]
 103.40.64.91:5678 1578ms IN [Waves NET Solutions]
叼 199.91.78.254:5678 3852ms PR [Aeronet Wireless]
 187.32.20.249:5678 4597ms  []
ю 185.98.1.57:4153 4084ms BA ["Telekomunikacije Republike Srpske" akcionarsko drustvo Banja Luka]
ю 187.58.135.42:5678 5182ms BR [Vivo]
 200.44.166.246:5678 6560ms  []
叼 85.89.184.87:5678 6873ms PL [TOYA Sp. z o.o.]
 103.122.85.54:5678 2998ms IN [WIZONE]
桂 217.11.180.168:5678 4073ms TJ [Babilon-T]
 207.210.47.34:5678 2682ms CA [Rogers Communications]
 200.46.191.130:5678 3303ms  []
 82.193.114.51:5678 3135ms  []
 103.200.100.65:5678 2557ms IN [Deep Communications]
 65.108.29.86:5678 5739ms DE [Hetzner Online GmbH]
ю 179.232.67.32:5678 4194ms BR [Claro S.A.]
 103.145.9.149:44550 2628ms  []
 103.143.195.189:5678 1009ms ID [TRINITY]
 103.255.120.94:4153 4057ms ID [BALISOKET]
 212.175.197.200:5678 6232ms  []
ю 187.44.1.248:5678 6937ms BR [Rede Brasileira de Comunicacao S/A]
 189.26.241.42:5678 5191ms  []
ю 143.202.129.170:5678 4160ms BR [Unilink Telecom]
别 202.123.178.98:5678 4260ms LA [Sky Telecom State Company]
 103.137.195.250:5678 4451ms  []
拆 64.119.31.178:5678 4471ms MN [MCS Com Co Ltd]
 101.128.74.239:5678 753ms ID [CBN]
 139.192.120.182:5678 2113ms ID [PT. First Media, Tbk]
 101.255.156.217:4145 7791ms ID [PT Remala Abadi]
拆 213.165.160.251:5678 2876ms MT [Melita plc]
吼 70.60.132.130:5678 4457ms US [Spectrum]
佛 109.72.49.140:5678 4132ms RS [AVCOM-CS]
 178.168.208.4:5678 3099ms  []
 46.172.66.131:4145 3690ms  []
 186.190.228.83:4153 3282ms CO [TV AZTECA SUCURSAL COLOMBIA]
筐 102.165.208.213:5678 3616ms ZA [Cipherwave]
桂 212.125.4.235:5678 2837ms TR [TurkNet Iletisim Hizmetleri]
 46.163.3.202:5678 2992ms AT [SOFTNET d.o.o.]
 80.23.253.250:5678 3871ms IT [INTERBUSINESS]
 212.230.181.209:5678 2924ms ES [Global ISP by PriorityTelecom Spain]
佛 46.17.252.138:5678 3685ms RU [VDS-Telecom LLC.]
 45.235.122.195:5678 4503ms  []
别 141.138.182.195:5678 5778ms LB [Moscanet SAL]
 45.71.100.92:5678 4536ms  []
 103.161.130.6:5678 621ms ID [PT Jaringan Internet Nusantara]
 37.157.214.229:5678 6497ms AM [Ucom CJSC]
拆 41.70.12.54:5678 5696ms MW [Malawi Research and Education Network - MAREN]
 186.211.100.145:5678 3538ms  []
 91.144.22.21:5678 3887ms  []
 186.84.172.15:5678 3191ms  []
筐 41.169.102.233:5678 4509ms ZA [Liquid Telecommunications South Africa (Pty) Ltd]
吼 136.143.144.188:5678 5269ms US [LocalTel Communications]
 103.195.253.160:5678 1863ms IN [Speed Airlive Broadband Services PVT LTD]
 213.163.126.100:5678 2934ms  []
ю 189.49.172.156:5678 3829ms BR [Telemar Norte Leste S.A.]
 31.200.229.214:5678 4374ms  []
 31.186.53.218:5678 3520ms  []
 85.28.31.68:5678 7222ms  []
 5.202.103.42:5678 5124ms IR [Pishgaman Toseeh Ertebatat Company (Private Joint Stock)]
 8.26.75.100:5678 4523ms  []
 103.129.92.44:5678 1834ms ID [CV. Demen]
桂 212.125.4.238:5678 6062ms TR [TurkNet Iletisim Hizmetleri]
 5.104.189.32:5678 3892ms  []
佛 5.130.72.170:5678 4152ms RU [Novotelecom Ltd.]
 46.30.67.253:5678 3280ms  []
 222.252.35.28:5678 3957ms  []
 190.85.59.6:5678 2971ms  []
 43.246.162.233:5678 2084ms  []
ю 186.211.185.242:5678 4134ms BR [BR.Digital Provider]
吼 38.134.10.82:5678 3047ms US [VGI Technology]
 81.91.157.134:5678 3346ms IR [Farabord Dadeh Haye Iranian Co.]
 37.159.144.34:5678 3977ms  []
ю 177.74.157.131:5678 5508ms BR [Clicfacil Telecom]
 95.45.254.204:5678 3989ms IE [Eircom Limited]
 38.113.171.108:5678 2671ms CA [Cogent Communications]
ю 177.19.189.144:5678 4186ms BR [TELEFNICA BRASIL S.A]
 103.52.252.18:5678 2454ms  []
叼 62.133.140.225:5678 3468ms PL [Spoldzielnia Telekomunikacyjna OST]
ю 177.94.236.92:5678 4781ms BR [TELEFNICA BRASIL S.A]
ю 179.108.248.174:4153 4846ms BR [BBG TELECOM LTDA]
 202.148.3.68:4153 1498ms ID [PT. Core Mediatech]
桂 1.20.95.95:5678 3827ms TH [TOT-MOBILE]
筐 160.226.223.40:5678 4079ms ZA [Iclix (PTY) Ltd]
ю 177.55.249.213:5678 4455ms BR [VAS Freitas Servicos de Internet Ltda]
ю 187.111.24.106:5678 4634ms BR [MUNDIVOX TELECOMUNICAES LTDA]
 51.254.162.207:5678 4371ms DE [OVH SAS]
 181.205.24.234:5678 4235ms CO [EPM Telecomunicaciones S.A. E.S.P.]
 36.91.125.237:5678 1218ms ID [PT. Telekomunikasi Indonesia]
ю 177.12.230.106:5678 3616ms BR [Aloo Telecom - FSF Tecnologia SA]
 43.243.141.60:3629 1703ms ID [CEPATNET]
ю 62.176.126.75:19887 3778ms BG [Bulgarian Telecommunications Company Plc.]
ю 138.117.62.118:5678 7236ms BR [Multiplic Comunicacao E Tecnologia Ltda -ME]
 183.177.127.42:5678 1645ms IN [51/A RACHNA MIDAS GOKULPETH]
 103.112.163.142:1080 488ms ID [24AS]
 190.146.70.197:5678 3409ms  []
 182.253.62.195:4153 1005ms ID [BIZNET]
 109.73.180.188:5678 3560ms IT [ECROM-MAIN]
 36.67.249.249:5678 5236ms ID [PT. Telekomunikasi Indonesia]
 103.130.4.8:1080 817ms ID [LINTASMAYA]
 190.2.210.123:5678 6531ms CO [TV AZTECA SUCURSAL COLOMBIA]
 45.170.46.49:3629 3447ms EC [Transcorporacion S.A.]
 203.192.233.26:5678 2285ms IN [announced In2cable MIDC Mumbai]
 95.107.199.222:5678 6035ms AL ["Albanian Satellite Communications" sh.p.k.]
ю 175.41.46.105:5678 2056ms BD [Internet @ Home Limited]
叼 190.93.176.21:5678 4219ms PY [Multi Link S.A.]
叼 217.66.237.14:5678 7345ms PS [Paltel-DSL]
桂 202.29.238.14:5678 740ms TH [THAINET]
 49.0.2.243:5430 381ms ID [PT Usaha Adi Sanggoro]
 123.231.175.20:5678 1039ms ID [Network Access Provider and Internet Service Provider]
 117.252.68.155:5678 3720ms IN [BSNL Internet]
 103.241.24.195:5678 1625ms ID [APIK Media Networks]
 140.0.31.69:4145 2010ms ID [PT. First Media, Tbk]
 103.105.42.1:4145 1064ms IN [Minnal Digital Network Private Limited]
 43.225.65.246:5430 684ms ID [HSPNET]
佛 217.169.222.225:1080 2659ms RS [Orion Telekom Client Network]
ю 177.104.123.30:5678 6802ms BR [S&T PARTICIPACOES LTDA - ME]
 14.102.44.25:34047 1491ms IN [WORLDPHONE]
 36.95.49.211:5678 799ms ID [PT. Telekomunikasi Indonesia]
 36.90.170.194:5678 1884ms ID [PT. Telekomunikasi Indonesia]
 36.89.224.51:5678 3588ms ID [PT. Telekomunikasi Indonesia]
 27.121.84.162:5678 3894ms ID [dashnet - PT Sumidhaz Permata Bunda]
ю 27.54.150.186:5678 2016ms BD [X-press Technologies Limited]
 182.253.232.16:5678 690ms ID [BIZNET]
 46.167.196.229:5678 2873ms CZ [UPC Czech]
叼 193.59.26.196:4153 5946ms PL [Bajtnet Spolka Z Ograniczona Odpowiedzialnoscia]
梆 154.159.247.82:5678 3381ms KE [Airtel KE Mobile Broadband]
 203.160.59.113:4153 2178ms ID [PT Hanasta Dakara]
 79.174.161.210:1080 3983ms  []
 185.112.36.177:5678 3548ms  []
 46.98.197.46:5678 6270ms  []
 103.10.97.74:4153 1671ms ID [Neuviz Net]
ю 177.38.83.86:5678 4650ms BR [ZAP BL TELECOMUNICACOES LTDA]
 36.89.157.23:5678 735ms ID [PT. Telekomunikasi Indonesia]
 41.89.186.69:5678 7589ms  []
吼 46.98.184.158:5678 6107ms UA [ISP "Fregat"]
 186.64.81.4:5678 4093ms  []
 177.36.6.90:5678 4077ms  []
 117.103.5.134:60113 736ms ID [PT Jogja Digital]
叼 85.114.102.86:5678 3613ms PS [fusion services]
 163.53.210.33:5678 2579ms IN [GTPL Shiv Network Pvt Ltd]
 200.27.110.30:57702 3488ms CL [Telmex Chile Internet S.A.]
 213.178.223.41:5678 2611ms  []
叼 200.85.52.170:5678 4005ms PY [Telecel S.A.]
 202.93.228.13:4153 688ms ID [PT. HIPERNET INDODATA]
 177.128.139.252:5678 4332ms  []
 36.91.177.197:5678 2259ms  []
仇 202.166.217.8:5678 1318ms NP [WorldLink Communications]
 45.112.125.57:4145 1438ms ID [FIBERNET]
 196.25.30.190:4153 7794ms  []
 200.25.254.141:5678 5192ms CO [Andinet ON Line]
ю 103.146.55.76:5678 1062ms BD [Md. Sohel]
ю 117.103.87.62:5678 888ms BD [IDS Bangladesh]
叼 85.114.100.110:5678 3572ms PS [fusion services]
 103.101.3.25:5678 706ms  []
 116.68.251.114:5430 726ms ID [PT. Cross Network Indonesia]
 185.16.132.4:5678 2517ms IT [TreNove s.r.l.]
 189.113.75.9:5678 4357ms  []
 36.92.120.63:5678 1818ms ID [Telekomunikasi Indonesia]
 45.221.73.46:5678 3755ms  []
ю 168.181.63.243:5678 4057ms BR [Ponto a Ponto Telecom do Brasil]
ю 168.232.122.35:5678 5137ms BR [Conexao - Telecom. E Internet Ltda]
仇 41.184.93.134:5678 4891ms NG [ipNX Nigeria Limited]
ю 187.86.153.254:30660 3724ms BR [VETORIALNET INF. E SERVIOS DE INTERNET LTDA]
 103.91.52.244:5678 4779ms  []
 103.169.70.21:5678 805ms  []
 202.150.152.122:8291 1816ms  []
ю 182.160.113.227:5678 1328ms BD [Aamra Networks Limited]
 79.137.254.65:5678 4221ms  []
桂 85.105.87.11:59341 6258ms TR [TurkTelecom]
 103.143.24.59:5678 7565ms  []
 45.112.127.106:4145 7605ms ID [FIBERNET]
 185.216.18.138:44550 3677ms  []
 202.58.199.236:5678 694ms ID [Internet Madju Abad Millenindo, PT]
 169.239.188.61:5678 4150ms  []
ю 170.239.108.254:5678 3898ms BR [Rede Unicon]
 212.200.161.241:5678 2848ms  []
梆 197.232.2.18:5678 3879ms KE [Jamii Telecommunications Limited]
ю 103.121.62.14:5678 2248ms BD [North Bengal Online]
 128.201.157.125:5678 4254ms  []
 191.37.48.255:4153 3750ms  []
拆 151.236.254.20:5678 3114ms MK [Net - Infrastructure]
 149.54.7.42:5678 4829ms AF [Government Communications Network]
 117.212.192.86:5678 2577ms  []
 121.101.132.90:5678 1015ms  []
 109.168.35.230:5678 2583ms IT [Irideos S.P.A.]
 103.121.62.137:5678 1114ms  []
ю 177.154.17.9:5678 4337ms BR [Wave Telecom Ltda]
 196.202.210.109:5678 6075ms  []
吼 50.84.203.105:5678 5493ms US [Spectrum]
 84.241.28.86:5678 3715ms  []
 121.101.131.73:5678 3678ms ID [TERABIT]
ю 189.84.122.34:5678 3943ms BR [Sobralnet Servicos E Telecomunicacoes Ltda - ME]
 45.229.192.213:5678 5915ms CO [Interlans S.A.S]
仇 185.134.216.217:5678 2600ms NL [Comsave B.V.]
 154.66.211.161:5678 5681ms  []
 95.104.112.234:5678 7397ms  []
 27.147.164.86:5678 1932ms  []
 77.104.103.236:5678 3688ms  []
 66.96.252.126:5678 3941ms  []
 66.96.252.123:5678 7815ms ID [PT. SMARTFREN TELECOM]
 63.209.154.222:5678 3277ms DO [Trilogy Dominicana, S.A.]
ю 131.255.34.22:44413 3631ms BR [A. A. Informtica e Manuteno Ltda]
 92.241.87.14:5678 3437ms  []
 5.180.100.24:5678 4078ms  []
仇 102.69.145.15:5678 4694ms NG [IP Express Ltd]
 188.0.117.41:5678 3727ms  []
 103.243.82.179:5678 1254ms  []
 134.19.253.151:5678 6593ms  []
 188.190.27.17:5678 2838ms  []
桂 101.51.144.163:5678 665ms TH [TOT Public Company Limited]
 202.50.53.32:5678 1282ms  []
吼 94.153.232.146:4153 2915ms UA [Kyivstar UA]
 109.125.128.71:5678 3681ms IR [PTS-Network]
 31.30.113.86:5678 6407ms CZ [Vodafone Czech Republic a.s.]
ю 43.243.206.110:5678 4288ms BD [BDCOM Online Limited]
叼 46.174.235.84:5678 3250ms PL [Interkam Szczepanik Spolka Komandytowa]
 181.174.205.62:5678 7152ms AR [Skycorp S.A]
ю 187.33.251.26:5678 4141ms BR [TELY Ltda]
 103.36.33.171:5678 1658ms ID [PT Mora Telematika Indonesia]
ю 115.127.103.82:5678 957ms BD [BRACNet Limited]
佛 77.236.234.250:3629 6688ms RU [JSC "ER-Telecom Holding"]
叼 46.174.235.37:5678 6079ms PL [Interkam Szczepanik Spolka Komandytowa]
 115.242.248.222:5678 4684ms IN [Reliance Jio Infocomm Limited]
别 183.182.99.192:5678 4112ms LA [Star Telecom Company]
 183.81.153.154:5678 781ms ID [Internet Service Provider]
 36.68.151.22:5678 6761ms ID [PT. TELKOM INDONESIA]
 46.107.238.232:5678 2723ms HU [htc]
 80.28.208.118:10801 3067ms ES [TDENET (Red de servicios IP)]
 41.190.232.80:10809 7508ms CD [Orioncom SPRL]
 45.125.117.22:5678 2182ms IN [Limras Eronet Broadband Service Private limited]
 181.114.232.59:31337 6541ms CL [TV CABLE DEL SUR LTDA]
 91.98.112.55:5678 7739ms IR [Pars Online PJS]
仇 124.41.252.31:5678 2270ms NP [WorldLink Communications]
 24.37.221.246:4145 2880ms CA [Le Groupe Videotron Ltee]
 181.143.69.227:5678 2917ms CO [EPM Telecomunicaciones S.A. E.S.P.]
金 46.99.153.20:5678 6944ms XK [Ipko Telecommunications]
 181.204.34.170:5678 3209ms CO [Colombia M贸vil]
吼 5.149.218.10:5678 3599ms UA [Lancom Ltd.]
 103.161.31.41:5678 1575ms IN [Venkata Sai Internet Pvt. Ltd]
 222.165.205.154:5678 3905ms ID [PT NettoCyber Indonesia]
ю 45.221.231.4:5678 6691ms BJ [SUD TELECOM SOLUTIONS]
仇 169.239.188.18:5678 4120ms NG [ETG Integrated Services Ltd. (Dolphin Telecom)]
叼 190.43.170.30:5678 5396ms PE [Telefonica del Per煤]
 93.91.201.70:5678 4167ms IQ [Newroz Telecom]
ю 177.222.146.125:5678 4430ms BR [Superline Telecomunicaes Ltda]
 31.47.55.22:5678 3754ms IR [Afranet]
 91.192.32.206:5678 3007ms CZ [ISP Alliance a.s.]
吼 46.172.223.34:5678 3877ms UA [FOP Sinev Maksim Viktorovich]
梆 91.235.176.174:5678 3375ms KZ [X-communication LLP]
ю 103.140.205.197:1080 2028ms BD [Novus Network]
 103.242.51.14:5678 3782ms AF [Vital Telecommunication]
佛 46.182.28.203:1080 3279ms RU [OOO "Network of data-centers "Selectel"]
火 117.4.243.26:5678 1009ms VN [Viettel Corporation]
ю 45.227.209.34:5678 3798ms BR [Next Network Telecomunicacao Ltda-me]
 190.5.99.162:5678 5717ms HN [Columbus Networks de Honduras S. de R.L.]
 45.116.1.54:5678 1122ms IN [Ethernet Xpress Pvt. Ltd.]
火 123.24.205.168:5678 2528ms VN [VietNam Post and Telecom Corporation]
 103.3.77.194:5678 894ms ID [PT.Indonesia Comnets Plus]
吼 46.219.33.142:5678 4124ms UA [o3 core]
 219.83.96.24:5678 644ms ID [INDOSATM2]
葛 31.167.83.206:5678 3575ms SA [Etihad Etisalat]
佛 185.5.17.19:3629 4835ms RU [Beltelecom Net]
叼 46.174.233.200:5678 3914ms PL [Interkam Szczepanik Spolka Komandytowa]
 94.182.222.170:5678 7841ms IR [SHATEL Network]
 92.242.221.169:5678 3700ms IR [Pooya Parto Qeshm Cooperative Company]
 123.108.98.89:5678 4033ms ID [PEMDA-NAD]
 190.1.137.242:5678 6570ms CO [Metrotel SA ESP]
叼 58.69.56.167:5678 3578ms PH [Philippine Long Distance Telephone Co.]
 103.141.254.25:5678 637ms ID [PT Mayatama Solusindo]
拆 93.119.166.150:5678 3063ms MD [Moldtelecom SA]
 31.46.41.214:5678 3015ms HU [Magyar Telekom]
 186.97.169.146:5678 6057ms CO [Colombia M贸vil]
 190.115.255.106:5678 5261ms CO [Emtel S.a. E.S.P.]
ю 49.0.44.42:61393 2223ms BD [Always On Network Bangladesh Ltd.]
叼 94.154.31.106:5678 2831ms PL [Slawomir Zapart trading as ZAPNET KAROL ZAPART Sp.j]
ю 106.0.61.66:5678 995ms BD [Tomato Web (Pvt.) Ltd.]
 217.64.46.114:5678 2950ms FI [Mediam Oy]
佛 94.230.6.26:5678 3261ms RU [ncport]
拆 103.129.76.202:5678 1900ms MM [Internet Maekhong Network Company Limited]
 81.91.151.94:5678 4265ms IR [Farabord Dadeh Haye Iranian Co.]
ю 177.73.94.186:5678 4054ms BR [Speeding Telecom]
叼 94.240.16.243:5678 3204ms PL [Lukman Multimedia Sp. z o.o]
佛 178.46.165.238:5678 3938ms RU [OJSC uralsvyazinform]
 103.15.238.134:5678 3614ms AF [G/38 Qala e Mosa Shaheed Square Shehr e NowShehr e Now]
 5.202.81.20:5678 3550ms IR [Pishgaman Toseeh Ertebatat Company (Private Joint Stock)]
ю 27.54.150.210:5678 956ms BD [X-press Technologies Limited]
ю 202.5.46.241:5678 4172ms BD [BBTS-NEW]
 201.184.239.74:5678 3950ms CO [EPM Telecomunicaciones S.A. E.S.P.]
ю 177.87.35.130:5678 6929ms BR [Vero Internet]
 83.215.182.87:5678 4984ms AT [SALZBURG-AG]
 217.64.27.144:5678 3241ms AZ [Baktelekom]
 185.94.82.213:5678 5369ms IT [ADSL Surf]
 43.230.213.193:5678 5046ms IN [Apollo Online Services Pvt ltd]
吼 91.219.235.169:5678 3328ms UA [Real-Web Crimea LLC]
 152.231.62.172:5678 7668ms AR [Intercom SRL]
ю 213.149.156.87:5678 3480ms BG [UltraNET Ltd]
 45.118.35.129:5678 1736ms IN [Infonet Comm Enterprises]
别 178.19.28.157:5678 4384ms LT [Roventa]
叼 201.218.109.74:5678 4363ms PA [Cable Onda]
ю 154.70.151.73:5678 4488ms BW [Microteck Enterprises (Pty) Ltd.]
 109.127.82.114:5678 6720ms IQ [Newroz Telecom]
ю 170.0.168.50:5678 4091ms BR [Frosinet - Frosi Informtica Ltda]
 45.71.185.42:3629 7171ms EC [Nedetel S.A.]
 176.65.240.48:5678 3485ms IR [Asiatech Data Transmission company]
 203.192.251.50:5678 3245ms IN [Entire In2Cable]
ю 202.5.46.145:5678 1326ms BD [BBTS-NEW]
仇 110.44.113.162:5678 1275ms NP [Vianet Communications Pvt. Ltd]
仇 41.242.66.74:5678 3778ms NG [General Telecommunication Networks Limited]
佛 89.221.52.140:5678 4022ms RU [Svyaz-Holding Ltd.]
仇 202.166.217.3:5678 1252ms NP [WorldLink Communications]
 186.148.191.226:5678 3208ms CO [TV AZTECA SUCURSAL COLOMBIA]
 201.184.61.43:5678 3233ms CO [EPM Telecomunicaciones S.A. E.S.P.]
ю 49.0.43.254:5678 3926ms BD [Always On Network Bangladesh Ltd.]
 181.115.36.156:5678 5522ms HN [Telgua]
 87.228.198.90:5678 3936ms CY [CYTANET - Cyprus Telecommunications Authority]
 195.29.217.126:5678 5942ms HR [Hrvatski Telekom d.d.]
拆 45.181.15.238:5678 3952ms MX [Sierra Madre Internet SA de CV]
仇 43.245.95.210:3306 4097ms NP [BroadLink Networks and Communications]
 41.223.49.155:5678 4049ms GN [MOUNA Group Technology Sa.]
 45.155.231.53:1080 2768ms FR [Appliwave SAS]
ю 202.53.171.74:5678 1204ms BD [Agni Systems Ltd.]
ю 177.72.64.6:5678 3860ms BR [Speakers Projetos e Execuo em Audio Ltda]
 201.220.85.22:5678 4256ms CO [Metrotel SA ESP]
 46.167.201.99:5678 2724ms CZ [UPC Czech]
吼 46.172.75.51:5678 2999ms UA [It-starcom LLC]
ю 45.187.21.68:5678 7171ms BR [Cyber NET Telecomunicacoes Eireli ME]
ю 181.188.183.122:5678 3512ms BO [Telef贸nica Celular de Bolivia S.A.]
 81.16.1.71:5678 4222ms AM [Ucom CJSC]
 103.149.194.13:5678 2342ms IN [Kavya Internet Services Pvt Ltd]
拆 178.168.114.177:5678 4270ms MD [SC STARNET SRL]
叼 103.53.45.142:5678 2234ms PK [Ebone Network Pvt. Ltd]
仇 41.184.93.130:5678 3790ms NG [ipNX Nigeria Limited]
ю 177.54.228.147:5678 4594ms BR [Aranet Comunicacao Ltda]
 103.143.8.122:5678 2097ms IN [Juweriyah Networks Private Limited]
叼 119.93.53.134:5678 1879ms PH [Philippine Long Distance Telephone Co.]
 80.191.40.41:5678 4446ms IR [Telecommunication Company of Iran]
 190.99.73.89:5678 3485ms EC [SPEEDYCOM]
 5.135.24.186:808 2883ms FR [OVH SAS]
拆 45.5.92.94:5678 2399ms MX [Se帽al Interactiva, S.A De C.V]
别 185.184.84.162:5678 3870ms LB [ZINA sarl]
ю 177.75.237.14:5678 4264ms BR [Garra Telecom Ltda]
拆 37.26.136.175:3629 3096ms MD [JSCC Interdnestrcom]
 45.64.8.30:5678 2403ms IN [Shivansh Infotech pvt Ltd]
拆 105.234.156.237:5678 3647ms MW [Airtel Malawi]
吼 85.90.208.64:5678 6149ms UA [Company group "Velton.Telecom"]
葛 185.188.236.226:5678 6338ms SK [Gemernet s.r.o.]
 37.252.86.97:5678 3219ms AM [Ucom Cjsc]
火 14.241.225.179:5678 966ms VN [VNPT]
别 185.82.98.73:5678 5860ms LB [Protected]
梆 41.139.147.86:5678 6917ms KE [Safaricom Limited]
仇 43.243.60.56:5678 1912ms NZ [2talk Limited]
ю 200.149.32.34:5678 4509ms BR [Telemar Norte Leste S.A.]
ю 103.195.141.230:5678 983ms BD [First n Fast IT Ltd]
筐 41.180.80.110:5678 4710ms ZA [X-dsl Networking Solutions]
拆 178.168.91.178:5678 5898ms MD [SC STARNET SRL]
ю 119.2.108.62:5678 4654ms BT [Bhutan Telecom Ltd]
筐 156.155.188.152:5678 4790ms ZA [AxxessNetworks]
 103.113.104.246:5678 1547ms IN [Ekowebtech It Services Pvt Ltd]
 85.185.166.110:5678 4332ms IR [Iran Telecommunication Company PJS]
仇 102.69.146.168:5678 6619ms NG [IP Express Ltd]
 37.235.24.166:5678 4007ms IR [Farabord Dadeh Haye Iranian Co.]
火 14.241.239.36:5678 632ms VN [VNPT]
ю 177.91.126.125:5678 3895ms BR [ROS Telecom]
 103.127.104.77:5678 3120ms IN [Apex Broadband Network Pvt. Ltd]
仇 197.255.254.153:5678 3660ms NG [Internet Solutions Nigeria Limited]
 37.252.87.187:5678 3310ms AM [Ucom Cjsc]
ю 200.170.152.121:5678 4036ms BR [ALGAR TELECOM S/A]
 103.87.230.121:1080 1787ms ID [ZITLINE]
ю 181.115.186.10:5678 5566ms BO [Entel S.A. - EntelNet]
吼 31.134.75.174:5678 4569ms UA [Lanet Network]
吼 46.151.192.224:5678 6552ms UA [Miratel Ltd]
 190.7.19.194:5678 3899ms AR [Gigared S.A]
ю 45.235.162.254:5678 5504ms BR [Norte.Net Telecomunicaes Ltda]
ю 45.6.15.67:5678 6773ms BR [G-link Telecom]
ю 186.236.237.55:5678 4899ms BR [Net Rosas Telecomunicaes Ltda.]
桂 185.177.0.157:5678 4661ms TJ [Opened Joint Stock Company "Tojiktelecom"]
ю 177.39.10.126:5678 5506ms BR [HD CONNECT INTERNET LTDA]
ю 95.158.189.4:5678 6061ms BG [Novatel Ltd]
 185.172.0.242:5678 4547ms IR [Farabord Dadeh Haye Iranian Co.]
ю 177.36.35.166:5678 4194ms BR [Avato Tecnologia]
ю 186.121.249.162:5678 4243ms BO [AXS Bolivia S. A.]
ю 79.100.104.146:5678 2929ms BG [BTC-BROADBAND]
叼 156.67.107.87:5678 2856ms PL [Mega Centrum Plus Zak Ryszard]
火 14.160.3.78:5678 2069ms VN [VNPT-VNNIC]
ю 187.103.0.8:5678 4702ms BR [NEWNET CONSULTORIA, INFORMATICA LTDA]
ю 45.251.228.195:5678 2329ms BD [KS Network]
 202.158.78.194:5678 492ms ID [ADITAMA6]
 178.252.129.210:5678 6309ms IR [GOSTARESH-E-ERTEBATAT-E MABNA COMPANY (Private Joint Stock)]
 181.13.132.179:5678 5559ms AR [Telecom Argentina S.A]
 115.242.248.226:5678 1086ms IN [Reliance Jio Infocomm Limited]
叼 213.6.36.146:5678 6689ms PS [Palestine Telecommunications Company]
吼 178.209.66.84:5678 3517ms UA [Cifrovye Dispetcherskie Sistemy]
ю 103.145.133.22:5678 4202ms BD [Md Raisul Islam]
 181.113.0.38:5678 3368ms EC [Corporacion Nacional De Telecomunicaciones - CNT EP]
桂 49.0.81.219:5678 3910ms TH [AIS-Fibre]
ю 103.239.255.130:5678 1203ms BD [Carnival Internet]
仇 110.44.123.153:5678 1094ms NP [Vianet Communications Pvt. Ltd]
叼 178.212.54.137:5678 6307ms PL [Lubuskie Sieci Swiatlowodowe Sp. z o. o.]
拆 41.72.214.14:5678 4871ms MU [Liquid Telecommunications Ltd]
ю 201.46.29.115:5678 3669ms BR [America-NET Ltda.]
叼 78.88.216.18:5678 3058ms PL [Broadband users of VECTRA S.A.]
梆 115.178.27.23:5678 4671ms KH [Cambodian Singmeng Telemedia CO]
 116.90.208.151:5678 3682ms ID [PT Multi Data Palembang]
 186.86.137.96:5678 3283ms CO [Telmex Colombia S.A.]
 202.58.205.170:5678 692ms ID [Internet Madju Abad Millenindo, PT]
叼 185.186.17.57:5678 6302ms PL [Media Telekom Sp. z o.o.]
ю 45.182.177.106:5678 4092ms BR [Evolucao Telecom Ltda]
仇 43.245.85.177:5678 2347ms NP [Vianet Communications Pvt. Ltd]
ю 201.33.192.19:5678 4915ms BR [V.B. Telecomunicaes LTDA.]
吼 37.53.93.128:5678 2837ms UA [UKRTELECOM]
筐 102.182.64.201:5678 6908ms ZA [Afrihost (Pty) Ltd]
佛 78.108.71.199:5678 4078ms RU [Infocentr LLC ISP]
ю 201.13.147.161:5678 4321ms BR [TELEFNICA BRASIL S.A]
ю 27.147.254.209:5678 1263ms BD [Link3 Technologies Limited]
 195.81.66.4:5678 3700ms IT [Dieffeitalia.it]
吼 193.107.169.222:5678 3047ms UA [PE UAinet]
吼 109.87.130.6:5678 3488ms UA [Triolan]
ю 177.137.3.195:5678 4728ms BR [Net Onze Provedor de Acesso a Internet Eireli]
 36.94.216.143:5678 2428ms ID [PT. Telekomunikasi Indonesia]
叼 192.166.222.213:5678 5694ms PL [Artur Bogusz trading as WIFI.KLODZKO.PL Sp. J]
梆 167.179.6.66:5678 718ms KH [NeocomISP Limited]
仇 41.242.62.27:5678 6634ms NG [BCN]
梆 124.248.190.71:5678 3818ms KH [COGETEL Co., Ltd]
 49.156.152.5:5678 2880ms IN [City Online]
ю 177.36.221.37:5678 3946ms BR [NT Brasil Tecnologia Ltda. ME]
吼 179.27.50.102:5678 5705ms UY [Administracion Nacional de Telecomunicaciones]
ю 160.238.179.164:5678 4178ms BR [Infra Solues de Informtica Ltda Me]
ю 170.84.92.162:5678 3666ms BR [Bomfim E Sousa Ltda]
ю 119.148.4.242:5678 1082ms BD [Agni Systems Ltd. SUB]
 78.102.14.1:5678 3068ms CZ [Vodafone Czech Republic a.s.]
ю 43.243.206.163:5678 4384ms BD [BDCOM Online Limited]
ю 191.34.164.66:5678 4452ms BR [TELEFNICA BRASIL S.A]
ю 177.11.84.9:5678 3749ms BR [Minas Turbo Provedor de Internet]
 115.85.86.114:5678 1825ms ID [Sudirman Central Business District]
ю 102.68.102.98:5678 4557ms BF [Alink Telecom Faso v]
ю 118.179.84.146:5678 2087ms BD [Dhakacom Limited]
 78.131.55.38:5678 3357ms HU [DIGI]
 115.178.54.198:5678 4561ms ID [NOC SIMAYA]
ю 177.36.6.88:5678 4005ms BR [1telecom Servicos De Tecnologia EM Internet Ltda]
 36.94.178.53:5678 1429ms ID [PT. Telekomunikasi Indonesia]
 37.238.136.12:5678 6695ms IQ [EarthLink Ltd. Communications&]
叼 191.98.196.15:5678 3205ms PA [WNET, S. A.]
 45.248.27.74:5678 2279ms IN [vardha info tech private limited]
仇 185.134.216.212:5678 2643ms NL [Comsave B.V.]
ю 201.222.81.33:5678 3954ms BO [Cotas Ltda.]
梆 203.223.44.214:5678 1974ms KH [Telecom Cambodia (T.C.)]
 200.69.79.170:5678 6546ms CO [TV AZTECA SUCURSAL COLOMBIA]
 36.94.130.66:5678 1978ms ID [PT. Telekomunikasi Indonesia]
 103.77.41.86:5678 4301ms IN [Anjani Broadband Solutions Pvt Ltd]
吼 37.57.56.38:5678 3985ms UA [Triolan]
 78.111.119.116:5678 3865ms CZ [GRAPESC II]
 180.250.156.234:5678 7892ms ID [PT. Telekomunikasi Indonesia]
佛 213.109.7.55:5678 2996ms RU [CJSC "ER-Telecom Holding" Lipetsk branch]
 181.174.85.106:5678 5321ms GT [Comcel Guatemala S.A.]
 186.97.198.18:5678 6309ms CO [Colombia M贸vil]
ю 103.132.217.71:5678 933ms BD [NET CONNECT]
 201.236.255.97:5678 3208ms CO [EPM Telecomunicaciones S.A. E.S.P.]
 27.123.5.26:5678 863ms ID [PT Tele Globe Global]
吼 31.135.177.172:5678 3053ms UA [PE Merzhevskiy Anatoliy Volodymyrovich]
 36.89.253.201:5678 6584ms ID [PT. Telekomunikasi Indonesia]
ю 201.17.17.154:5678 6653ms BR [Claro S.A.]
ю 177.222.60.138:5678 4771ms BO [Telef贸nica Celular de Bolivia S.A.]
叼 217.78.61.163:5678 7790ms PS [Paltel-DSL]
ю 201.17.145.112:5678 3897ms BR [Claro S.A.]
ю 186.235.86.113:5678 5235ms BR [BRAVA TELECOMUNICAES BRASILIA LTDA.]
桂 119.110.205.244:5678 1647ms TH [Symphony Communication Public Company Limited]
吼 77.120.162.238:5678 2951ms UA [Volia Kharkov]
别 102.69.79.133:5678 6500ms LY [Aljeel Aljadeed For Technology]
 185.126.40.232:4153 4007ms IR [Pishgaman Toseeh Ertebatat Company (Private Joint Stock)]
 185.136.193.84:5678 3616ms IR [Honar Rayaneh Pooya Andisheh PJSC]
ю 170.82.236.55:5678 4095ms BR [Interliga Solucoes Tecnologicas Ltda - ME]
 181.143.81.52:5678 4334ms CO [EPM Telecomunicaciones S.A. E.S.P.]
火 183.91.26.189:5678 7733ms VN [CMC Telecom Infrastructure Company]
筐 102.132.76.29:5678 7650ms ZA [Kurlec Wireless (PTY) Ltd]
 185.136.151.252:5678 3206ms IQ [Kurdistan Net 19]
ю 103.78.252.108:5678 7132ms BD [Spark Online]
ю 114.134.90.43:5678 2085ms BD [OptiMax Communication Ltd]
吼 69.89.113.105:5678 5679ms US [ACD.net]
 185.136.150.26:5678 3747ms IQ [Kurdistan Net 1]
 103.101.57.92:5678 6429ms IN [Fast Track Internet Service]
吼 176.120.32.135:5678 3050ms UA ["Langate" Ltd]
ю 177.38.247.130:5678 3777ms BR [Henet Telecomunicacoes Ltda]
叼 103.148.225.6:5678 2768ms PH [Rising Star Cable TV Services]
ю 138.117.60.215:5678 7778ms BR [Multiplic Comunicacao E Tecnologia Ltda -ME]
 77.104.75.97:5678 3531ms IR [Respina]
吼 77.121.71.139:5678 4708ms UA [Kyivski Telekomunikatsiyni Merezhi LLC]
叼 176.120.126.7:5678 2587ms PL [Onefone SA]
桂 176.235.83.113:1080 2636ms TR [Tellcom Iletisim Hizmetleri A.S.]
梆 122.252.179.66:5678 815ms KH [Phnom Penh Cable TV]
ю 138.0.74.156:5678 6962ms BR [Ultra Telecom]
 200.107.99.11:5678 5400ms AR [LOS AMORES S.A.]
叼 188.137.82.179:5678 5937ms PL [Leon Sp. z o.o.]
梆 110.235.248.198:5678 1987ms KH [COGETEL Co]
火 113.160.16.142:5678 2691ms VN [VietNam Post and Telecom Corporation]
ю 138.0.172.129:5678 6365ms BR [JustWeb Telecomunicaes LTDA]
吼 176.113.230.132:5678 4799ms UA [Likhno Dmitriy trading as Luganet]
吼 199.85.83.83:5678 3096ms US [Vyve Broadband]
ю 200.142.100.138:5678 6801ms BR [Mundivox LTDA]
 146.196.63.161:4145 1466ms IN [Acme Diginet Corporation Pvt. Ltd]
 36.90.228.183:3629 3974ms ID [PT. Telekomunikasi Indonesia]
 41.75.78.230:5678 5357ms CG [GVA Congo]
 113.11.136.131:5678 7988ms ID [PRIMA]
吼 176.118.51.82:3629 3820ms UA [Limited Liability Company Radio Network]
ю 118.67.223.4:5678 910ms BD [InterCloud Limited]
梆 197.232.21.232:5678 4167ms KE [Jamii Telecommunications Limited]
ю 103.140.205.173:1080 4043ms BD [Novus Network]
吼 176.102.51.82:5678 2949ms UA [PRIVATE JOINT STOCK COMPANY "DATAGROUP"]
 112.78.175.140:5678 3656ms ID [BIZNET]
拆 1.32.57.85:5678 917ms MY [Telekom Malaysia Berhad]
 66.96.252.122:5678 3628ms ID [PT. SMARTFREN TELECOM]
 131.196.12.156:5678 3860ms EC [Nedetel S.A.]
 112.78.138.163:5678 7693ms ID [Biznet Networks]
桂 1.20.99.41:5678 4114ms TH [TOT-MOBILE]
 36.66.71.26:5678 693ms ID [PT. Telekomunikasi Indonesia]
 1.186.246.107:45091 2897ms IN [D-VoiS Broadband Private Limited]
 62.99.77.171:5678 4438ms ES [Euskaltel S.A.]
 63.209.154.221:5678 4073ms DO [Trilogy Dominicana, S.A.]
梆 175.100.20.13:5678 1776ms KH [VIETTEL (CAMBODIA) PTE., LTD]
桂 196.41.46.242:5678 3625ms TZ [RAHA-LTZ]
桂 196.41.45.170:5678 5117ms TZ [Liquid Telecommunications Ltd]
ю 131.108.124.117:5678 7332ms BR [Infortek Networks Ltda -ME]
 1.186.82.4:5678 5080ms IN [D-VoiS Broadband Private Limited]
梆 175.100.5.47:5678 819ms KH [VIETTEL (CAMBODIA) PTE., LTD]
 36.66.55.43:5678 835ms ID [PT. Telekomunikasi Indonesia]
 45.112.125.58:4145 7945ms ID [FIBERNET]
佛 196.223.244.194:5678 5293ms RW [Axiom Networks Ltd]
梆 36.37.189.64:5678 3952ms KH [VIETTEL (CAMBODIA) PTE., LTD]
梆 36.37.208.87:5678 2057ms KH [VIETTEL (CAMBODIA) PTE., LTD]
梆 36.37.134.11:5678 3993ms KH [VIETTEL (CAMBODIA) PTE., LTD]
ю 131.0.210.41:4153 4220ms BR [D. A. SERVIOS DE TELECOMUNICACOES EIRELI]
ю 109.105.205.231:5678 4335ms BA [Split network]
 103.109.111.53:5678 1185ms IN [Blue Lotus Support Services Pvt Ltd]
葛 213.81.209.95:5678 4434ms SK [Slovak Telecom AS6855]
 180.178.93.146:5678 1862ms ID [PT Widya Intersat Nusantara]
ю 46.55.161.113:5678 3049ms BG [ASNET Ltd]
 103.47.238.198:5678 3061ms IN [Gigantic Internet Services Pvt. Ltd]
ю 49.0.42.114:10801 897ms BD [Always On Network Bangladesh Ltd.]
 37.252.66.240:5678 3424ms AM [Ucom Cjsc]
梆 27.109.117.219:5678 958ms KH [Cambodian Singmeng Telemedia CO]
梆 27.109.116.187:5678 1078ms KH [Cambodian Singmeng Telemedia CO]
ю 45.163.116.43:5678 6891ms BR [J. K. TELECOM LTDA ME]
拆 77.89.201.70:5678 3029ms MD [Orange Moldova Network]
 45.183.247.243:5678 3327ms CO [Grupo Luma SAS]
ю 177.47.194.207:5678 5227ms BR [Pontenet Teleinformtica Ltda.]
 200.116.198.160:58927 5785ms CO [EPM Telecomunicaciones S.A. E.S.P]
ю 177.107.32.203:5678 4923ms BR [G8 NETWORKS LTDA]
佛 176.215.237.166:5678 3565ms RU [JSC "ER-Telecom Holding"]
桂 154.72.88.102:5678 7339ms TZ [RAHA-LTZ]
拆 196.3.97.71:5678 4794ms MZ [Eduardo Mondlane University]
仇 41.220.65.107:5678 5766ms NG [MTN NIGERIA Communication limited]
ю 177.36.186.130:5678 4201ms BR [GGNET TELECOMUNICAES LTDA]
梆 154.79.248.156:5678 3969ms KE [Airtel KE Mobile Broadband]
梆 111.92.241.154:5678 810ms KH [Cambodian Singmeng Telemedia CO]
 103.47.59.206:5678 1988ms IN [Precious netcom pvt ltd]
 5.160.39.226:5678 4942ms IR [RSPN]
 43.239.155.47:5678 5555ms IN [IriisNet communication Pvt Ltd]
 175.158.61.164:5678 852ms ID [CBNNAP]
ю 189.50.252.173:5678 7126ms BR [Process Solutions Tecnologia E Inf. Eireli - EPP]
 36.89.230.85:5678 2218ms ID [PT. Telekomunikasi Indonesia]
 111.92.166.34:5678 945ms ID [Jogja Medianet]
葛 82.137.250.45:5678 3471ms SY [190 Internet Service Provider]
梆 154.79.249.72:5678 5767ms KE [Airtel KE Mobile Broadband]
 103.86.157.163:5678 1595ms ID [CBN]
叼 110.38.29.122:5678 4890ms PK [Wateen Telecom Limited]
ю 27.147.155.21:5678 2158ms BD [Link3 Technologies Limited]
 193.86.24.146:5678 3867ms CZ [T-Mobile Czech Republic a.s.]
桂 118.174.133.195:33704 3884ms TH [TOT Public Company Limited]
 190.146.60.76:5678 4042ms CO [Telmex Colombia S.A.]
 190.210.141.170:5678 3780ms AR [NSS S.A.]
叼 5.133.27.10:5678 6352ms PS [JetNet for Information Technology and Telecommunications Limited Liability Comp]
梆 119.15.89.87:5678 7717ms KH [WiCAM Corporation Ltd]
 190.14.155.198:5678 4068ms CR [R&H Telecom - Red WLAN]
 219.83.12.177:5678 880ms ID [Customer Of IndosatM2]
佛 188.43.5.113:3629 4170ms RU [TRANS-TELECOM]
ю 189.84.124.66:5678 3624ms BR [Sobralnet Servicos E Telecomunicacoes Ltda - ME]
 95.80.182.76:5678 3888ms IR [Bozorg Net-e Aria]
ю 45.185.236.9:5678 4087ms BR [Internet Vira NET Eireli]
叼 181.94.246.125:4153 3828ms PY [N煤cleo S.A]
梆 49.156.42.186:5678 829ms KH [WiCAM Corporation Ltd]
梆 49.156.41.74:5678 3954ms KH [WiCAM Corporation Ltd]
梆 49.156.38.126:5678 898ms KH [WiCAM Corporation Ltd]
叼 46.174.239.123:5678 3764ms PL [Interkam Szczepanik Spolka Komandytowa]
拆 93.115.138.250:5678 6165ms MD [JSC MOLDTELECOM SA]
吼 91.234.227.135:5678 3010ms UA [Sipcom Ltd.]
 213.32.254.112:5678 4300ms IQ [Kurdistan Net 3]
叼 89.228.128.216:5678 3107ms PL [Multimedia Polska S.A.]
 212.225.240.31:3629 2623ms ES [Procono S.A.]
梆 45.201.132.232:5678 2584ms KH [King Technologies Co]
 45.116.114.29:5678 4012ms IN [Rainbow Communications India Pvt Ltd]
 45.73.0.118:5678 3085ms CA [Videotron Telecom Ltee]
ю 45.71.239.91:5678 5602ms BR [LD PRODUTOS DE INFORMATICA EIRELI - ME]
 186.87.179.54:5678 4283ms CO [Telmex Colombia S.A.]
ю 186.209.49.122:5678 7235ms BR [Net Turbo Telecom]
 43.251.217.46:5678 2305ms IN [EMC Square Teleinfra Pvt Ltd]
ю 45.164.197.22:5678 7044ms BR [Jsouzanet Telecom]
ю 168.228.207.98:5678 4336ms BR [Advanx Informatica Ltda]
 181.129.182.138:5678 3025ms CO [EPM Telecomunicaciones S.A. E.S.P.]
叼 213.6.68.94:5678 3654ms PS [Palestine Telecommunications Company]
梆 92.47.197.18:5678 4137ms KZ [JSC Kazakhtelecom]
吼 31.128.235.92:5678 2601ms UA ["Merlin-Telekom" LLC]
梆 110.74.195.149:5678 866ms KH [EZECOM limited]
 203.77.239.217:5678 820ms ID [PT. Total Info Kharisma]
ю 49.0.34.50:10801 2258ms BD [Always On Network Bangladesh Ltd.]
拆 41.77.23.120:5678 5028ms MG [Airtel Madagascar]
 36.89.186.131:5678 610ms ID [PT. Telekomunikasi Indonesia]
 103.144.255.146:5678 995ms ID [PT. Indonesia Comnets Plus]
火 203.205.29.108:5678 880ms VN [CMC Telecom Infrastructure Company]
梆 124.248.190.213:5678 1499ms KH [COGETEL Co., Ltd]
ю 179.191.15.110:5678 3797ms BR [Atalink Telecomunicacoes]
 203.166.206.76:5678 750ms ID [CENTRIN]
仇 124.41.240.53:5678 1330ms NP [WorldLink Communications]
筐 41.78.186.65:4153 5624ms ZA [Skywire]
ю 186.121.214.250:5678 6728ms BO [AXS Bolivia S. A.]
ю 191.7.215.246:5678 3583ms BR [Online Servicos De Telecomunicacoes Ltda]
叼 5.133.24.167:5678 3318ms PS [JETNET]
佛 31.207.223.107:3629 3151ms RU [Intersvyaz-2 JSC]
佛 31.207.188.250:5678 4203ms RU [Intersvyaz-2 JSC]
 185.8.150.144:4145 2754ms IT [DIGITAL TELECOMMUNICATION SERVICES 3th]
佛 81.177.73.28:4145 3835ms RU [MTS PJSC]
 45.115.179.221:5678 2608ms IN [IAXN Telecom Pvt. Ltd.]
佛 31.173.193.34:5678 3583ms RU [Caucasus Branch of OJSC MegaFon]
 186.97.246.178:5678 4106ms CO [Colombia M贸vil]
佛 31.28.4.214:4153 5139ms RU [Filanco LLC]
叼 185.97.135.165:5678 3183ms PS [GAZANET Service]
ю 123.200.9.30:5678 2275ms BD [Link3 Technologies Limited]
叼 203.177.101.202:5678 4402ms PH [Globe Telecom]
 27.123.4.238:5678 2048ms ID [PT Tele Globe Global]
 103.87.48.52:5678 2078ms IN [Third Eye Vision]
拆 41.77.8.110:5678 4670ms MW [Globe BT FTTX 1]
火 27.72.59.99:5678 1020ms VN [Newass2011xDSLHN]
佛 46.188.2.42:5678 4488ms RU [2COM Co ltd.]
ю 186.235.118.2:5678 3840ms BR [IWserver Internet Banda Larga Ltda.]
拆 41.77.130.90:5678 3762ms MZ [Moztel LDA]
叼 179.189.219.98:4145 4638ms PY [TECNOLOGIA EN ELECTRONICA E INFORMATICA SOCIEDAD ANONIMA (T.E.I.S.A)]
叼 5.226.125.10:10801 2786ms PL [NETIA]
ю 123.200.6.58:5678 2079ms BD [Link3 Technologies Limited]
吼 91.201.240.84:5678 2848ms UA [ISP Shtorm]
梆 5.188.64.79:5678 3596ms KZ [NLS]
叼 5.172.188.93:5678 5898ms PL [Gmina Miasta Elk]
叼 5.172.188.92:5678 2647ms PL [Gmina Miasta Elk]
佛 5.141.86.236:5678 5844ms RU [Rostelecom networks]
筐 41.57.190.5:5678 4228ms ZA [SCR Harris]
拆 103.80.210.33:5678 4523ms MN [Unidish LLC]
ю 46.252.59.171:10801 3929ms BG [Balchik.net]
ю 118.179.81.98:10801 4042ms BD [Dhakacom Limited]
 117.254.58.189:5678 1333ms IN [BSNL Internet]
梆 119.15.88.118:5678 7981ms KH [WiCAM Corporation Ltd]
ю 203.76.98.45:5678 900ms BD [Link3 Technologies Limited]
 122.102.43.185:5678 562ms ID [PT Hipernet Indodata]
拆 41.223.154.170:5678 6631ms MZ [Moztel LDA]
筐 41.161.61.178:5678 7057ms ZA [Neotel GAU]
 202.58.199.207:5678 1048ms ID [Internet Madju Abad Millenindo, PT]
 103.53.110.19:5678 1242ms IN [Tycoon Computers Pvt. Ltd.]
 185.43.189.197:5678 3377ms AZ [Caspian Telecom CGN]
 103.38.205.17:5678 1527ms IN [gtpl hariom world vision]
梆 103.5.125.54:5678 1172ms KH [Xinwei (Cambodia) Telecom Co. Ltd]
ю 179.127.198.9:5678 6846ms BR [Afinet Solucoes EM Tecnologia DA Informacao Ltda]
吼 37.57.38.133:10801 3519ms UA [Triolan]
 36.95.81.113:5678 678ms ID [PT. Telekomunikasi Indonesia]
ю 103.195.2.12:44550 3840ms BD [Geotel Bangladesh IT Ltd]
吼 154.72.202.130:5678 6110ms UG [National Information Technology Authority Uganda]
 103.167.11.21:5678 890ms ID [PT Segara Muncar Media]
筐 41.163.7.46:5678 4365ms ZA [Neotel GAU]
 103.138.40.238:5678 3880ms ID [PT. Bali Towerindo Sentra]
吼 85.223.233.38:5678 3061ms UA [GTU Dnepropetrovsk]
 36.95.4.169:5678 885ms ID [PT. Telekomunikasi Indonesia]
 41.190.70.110:5678 5803ms GH [Alink Ghana-Network]
 202.148.26.125:5678 546ms ID [PT. Core Mediatech]
 36.95.65.99:5678 4708ms ID [PT. Telekomunikasi Indonesia]
筐 154.117.159.123:5678 4545ms ZA [BitCo]
 185.20.197.66:5678 5500ms IQ [Horizon Scope Mobile Telecom WLL]
 37.98.231.12:1080 4300ms IQ [ScopeSky Communication and Internet Ltd.]
ю 168.90.76.220:5678 4082ms BR [Micks Telecom Eireli]
拆 202.131.233.187:5678 4325ms MN [Mobinet LLC]
 103.109.24.117:5678 3808ms ID [PT. KINEZ CREATIVE SOLUTIONS]
ю 103.129.210.238:5678 1128ms BD [Md Shohel Rana]
 202.148.22.106:5678 569ms ID [PT. Core Mediatech]
ю 177.74.136.21:5678 4276ms BR [M. N. Redes de Comunicaes]
 201.221.128.154:5678 3680ms CO [Telebucaramanga S.a. E.S.P]
拆 37.34.124.2:1080 3373ms MD [Moldcell]
 103.123.250.116:5678 773ms ID [PT Mora Telematika Indonesia]
 95.38.171.70:5678 6019ms IR [FANAVADP]
 36.92.96.178:5678 4016ms ID [Telekomunikasi Indonesia]
 103.124.137.27:5678 1436ms ID [Global Media Data Prima]
 36.92.202.2:5678 2792ms ID [Telekomunikasi Indonesia]
佛 85.30.198.53:5678 4077ms RU [National Cable Networks]
桂 159.192.140.230:5678 1082ms TH [CAT-BB]
 201.221.157.162:5678 4411ms CO [Telebucaramanga S.a. E.S.P.]
ю 201.18.144.234:5678 4656ms BR [Telemar Norte Leste S.A.]
ю 177.74.136.6:5678 4131ms BR [M. N. Redes de Comunicaes]
 201.221.128.234:5678 4491ms CO [Telebucaramanga S.a. E.S.P]
ю 163.47.36.210:5678 2052ms BD [Bangladesh Research and Education Network (BdREN)]
ю 200.58.250.111:5678 4982ms BR [3.I. TELECOM LTDA - ME]
 117.196.231.153:5678 3663ms IN [Bharat Sanchar Nigam Ltd]
吼 80.90.238.45:10809 2966ms UA [Onetelecom]
 117.102.89.74:5678 647ms ID [Biznet Networks]
葛 185.164.75.48:5678 3973ms SC [Atrin Communications and Information Technology Co.]
ю 160.20.202.93:5678 4690ms BR [bipNET Internet Banda Larga]
ю 177.74.183.10:4145 4839ms BR [Mega NET Turbo]
ю 177.73.44.190:4145 3730ms BR [JTR DA SILVA TECNOLOGIA ME]
 103.113.3.210:5678 2640ms ID [Diskominfo Tangerang Selatan]
 201.221.134.202:5678 4260ms CO [Telebucaramanga S.a. E.S.P.]
叼 161.132.124.149:5678 3688ms PE [Optical Technologies S.A.C.]
叼 185.140.100.178:5678 2650ms PL [Daniel Wojda trading as Netservice]
ю 181.188.131.155:4153 3617ms BO [Telef贸nica Celular de Bolivia S.A.]
别 102.68.130.194:5678 3509ms LY [LTT Autonomous System]
 81.218.45.150:5678 5855ms IL [BEZEQINT-CABLES]
梆 103.101.81.240:5678 670ms KH [Turbotech CO.]
ю 103.108.144.142:5678 903ms BD [Internet @ Home Limited]
 103.109.24.121:5678 3949ms ID [PT. KINEZ CREATIVE SOLUTIONS]
 36.91.117.231:5678 3794ms ID [PT Telekomunikasi Indonesia]
 36.91.145.5:5678 1126ms ID [PT. Telekomunikasi Indonesia]
ю 103.106.242.114:5678 2064ms BD [Saddam Hossain t/a Asian Network]
 81.12.125.9:5678 5396ms IR [Dade Pardazi Respina PJSC]
 36.91.135.142:5678 1758ms ID [PT Telekomunikasi Indonesia]
桂 78.187.61.78:5678 3150ms TR [Turk Telekomunikasyon A.S]
ю 177.36.208.55:5678 3740ms BR [NT Brasil Tecnologia Ltda. ME]
ю 177.155.248.2:5678 4875ms BR [Vero Internet]
ю 177.72.155.154:5678 5089ms BR [JF TELECOM SERV. TELECOMUNICAES LTDA]
 36.92.93.141:5678 1872ms ID [Telekomunikasi Indonesia]
 200.54.248.107:5678 3747ms CL [TEEMSR-LACNIC]
ю 116.68.198.198:5678 4267ms BD [Agni Systems Ltd.main-1a]
ю 78.108.246.50:5678 2975ms BG [KiG-Unisat-TV GCN]
 36.91.190.61:5678 1018ms ID [PT. Telekomunikasi Indonesia]
 36.89.194.99:5678 1914ms ID [PT. Telekomunikasi Indonesia]
ю 177.67.146.10:5678 4042ms BR [pgf telecomunicacoes ltda]
 36.91.131.5:5678 1169ms ID [PT Telekomunikasi Indonesia]
ю 200.58.76.160:5678 4698ms BO [Comteco Ltda]
 185.129.231.232:4153 3638ms IR [Pishgaman Toseeh Ertebatat Company (Private Joint Stock)]
 36.92.209.73:5678 5380ms ID [PT. Telekomunikasi Indonesia]
ю 115.127.106.82:5678 2188ms BD [BRACNet Limited]
 36.89.92.145:5678 5749ms ID [PT. Telekomunikasi Indonesia]
ю 177.128.44.131:31337 5208ms BR [FLY & LVT]
 138.0.228.94:5678 3563ms HN [Multicable De Honduras]
拆 151.236.247.213:5678 2995ms MK [Net - Key]
 36.89.149.109:5678 4582ms ID [PT. Telekomunikasi Indonesia]
仇 182.93.85.49:5678 2316ms NP [Subisu D85]
 115.124.76.130:5678 2905ms ID [PT Remala Abadi]
ю 177.87.225.40:4153 4603ms BR [BMBB SERVIOS DE COMUNICAO LTDA]
拆 103.80.210.174:5678 3113ms MN [Unidish LLC]
 36.67.242.209:5678 787ms ID [PT. Telekomunikasi Indonesia]
 77.242.134.107:5678 4682ms IT [HAL Service SpA]
 139.255.19.250:5678 1444ms ID [PT. LINKNET]
叼 77.252.26.70:10801 3013ms PL [NETIA]
ю 103.144.161.69:8291 1009ms BD [Kloud Technologies Limited]
 2.187.188.167:5678 4798ms IR [Iran Telecommunication Company PJS]
梆 103.248.42.88:5678 3728ms KH [Telecom Cambodia (T.C.)]
佛 141.0.181.67:5678 3234ms RU [SEVEREN-VOLGA]
梆 114.134.190.164:5678 943ms KH [Cambodian Singmeng Telemedia CO]
ю 103.144.161.104:8291 2398ms BD [Kloud Technologies Limited]
ю 177.12.116.8:5678 6683ms BR [Netline Telecom]
 36.67.249.177:5678 2938ms ID [PT. Telekomunikasi Indonesia]
 103.122.66.81:5678 637ms ID [PT. Jinom Network Indonesia]
筐 197.211.245.208:5678 4282ms ZW [Zimbabwe Online (Private) Ltd.]
 182.253.69.218:5678 1746ms ID [BIZNET]
 14.102.19.50:5678 4667ms IN [WORLDPHONE]
ю 177.74.136.33:5678 4625ms BR [M. N. Redes de Comunicaes]
 139.255.86.226:5678 733ms ID [PT. LINKNET]
 103.124.138.101:5678 478ms ID [Global Media Data Prima]
 139.255.113.194:5678 3878ms ID [PT. LINKNET]
 36.66.155.39:5678 3163ms ID [PT. Telekomunikasi Indonesia]
 36.66.16.133:5678 6055ms ID [PT. Telekomunikasi Indonesia]
ю 182.160.122.226:5678 5364ms BD [Aamra Networks Limited]
ю 177.129.129.122:5678 7282ms BR [Tres Marias Net Ltda]
 103.112.163.238:5678 1711ms ID [24AS]
ю 182.160.127.236:5678 2518ms BD [Aamra Networks Limited]
筐 102.165.220.17:5678 3792ms ZA [Cipherwave]
ю 182.160.108.210:5678 2129ms BD [Aamra Networks Limited]
佛 176.99.141.78:5678 2713ms RU [Inetcom LLC]
梆 36.37.244.41:5678 3961ms KH [VIETTEL (CAMBODIA) PTE., LTD]
梆 36.37.202.62:5678 2162ms KH [VIETTEL (CAMBODIA) PTE., LTD]
 196.175.251.17:1080 6488ms GH [Airtel Ghana]
梆 111.92.242.158:5678 3917ms KH [Cambodian Singmeng Telemedia CO]
 196.175.250.205:1080 4172ms GH [Airtel Ghana]
筐 196.192.185.2:5678 3411ms ZA [Metrofibre Networx]
ю 182.160.100.157:5678 1958ms BD [Aamra Networks Limited]
ю 131.161.177.62:5678 6549ms BR [Linejet servios de telecomunicaes ltd]
 130.193.123.34:5678 6362ms AM [GNC]
佛 109.94.178.238:3629 6654ms RU [MTS PJSC]
梆 185.97.114.179:3629 3627ms KZ [KZNLS Network]
 43.241.132.66:4153 3042ms IN [Intech Telecom]
桂 185.200.36.115:5678 3089ms TR [High Speed Telekomunikasyon ve Hab. Hiz. Ltd. Sti.]
 31.217.221.74:10801 5845ms AT [Peter Rauter GmbH]
 36.89.181.133:5678 1958ms ID [PT. Telekomunikasi Indonesia]
 43.249.217.162:5678 2820ms IN [Apollo Online Services Pvt ltd]
 181.143.45.21:4153 2972ms CO [EPM Telecomunicaciones S.A. E.S.P.]
吼 31.129.84.15:5678 6347ms UA [Dnepronet Ltd.]
 36.95.29.107:5678 1080ms ID [PT. Telekomunikasi Indonesia]
 202.145.14.51:4145 710ms ID [PT UniNET Media Sakti]
 185.171.52.130:5678 3651ms IR [Sefroyek Pardaz Engineering Co. LTD]
ю 177.66.255.182:5678 5077ms BR [e.serv informatica e tecnologia ltda.]
别 185.124.212.18:5678 3040ms LB [IncoNet Data Management sal]
 103.87.201.135:4145 895ms ID [PT. Fiber Networks Indonesia]
 5.202.122.222:5678 3616ms IR [Pishgaman Toseeh Ertebatat Company (Private Joint Stock)]
 149.54.20.154:5678 7078ms AF [Government Communications Network]
ю 180.211.193.74:5678 2349ms BD [Bangladesh Telecommunications Company Ltd.]
筐 41.79.149.17:5678 2901ms ZA [Info-Gro (PTY) Ltd]
 102.176.162.24:5678 7502ms GN [Areeba Guinee SA]
 101.255.117.25:5678 2043ms ID [PT Remala Abadi]
 45.5.152.232:37762 7192ms AR [Intersat S.A.]
桂 31.223.22.25:1080 6414ms TR [TurkNet Iletisim Hizmetleri A.S.]
吼 217.147.175.112:5678 2691ms UA [New Telecom Ltd]
吼 46.98.194.230:5678 7078ms UA [ISP "Fregat"]
 36.89.11.81:5678 2315ms ID [PT. Telekomunikasi Indonesia]
 181.143.54.162:4153 3860ms CO [EPM Telecomunicaciones S.A. E.S.P.]
叼 5.133.30.75:5678 3001ms PS [JetNet for Information Technology and Telecommunications Limited Liability Comp]
叼 77.242.235.33:4153 5903ms PL [LKH INTERMEDIA]
 200.55.249.156:4153 3502ms EC [Comm & Net S.A]
梆 103.101.81.95:5678 1006ms KH [Turbotech CO.]
 46.209.22.250:3629 3819ms IR [Dade Pardazi Respina PJSC]
ю 191.37.34.222:4153 7508ms BR [Cednet Provedor Internet]
仇 103.192.76.36:5678 2159ms NP [Classic Tech Pvt. Ltd.]
 91.243.175.197:1080 4071ms IR [Sari System Bandarabas Company]
佛 46.151.150.6:5678 3159ms RU [Citadel Crimea Ltd.]
 136.232.96.54:5678 4456ms IN [Reliance Jio Infocomm Limited]
 217.58.58.50:4153 3477ms IT [INTERBUSINESS]
 165.22.223.92:1053 6464ms IN [DigitalOcean, LLC]
桂 41.75.212.186:5678 4214ms TZ [Airtel TZ]
 103.124.196.234:5430 3472ms ID [PT INFORMASI NUSANTARA TEKNOLOGI]
 178.35.252.242:3629 3034ms  []
 36.67.147.222:4153 819ms ID [PT. Telekomunikasi Indonesia]
叼 77.242.233.13:4153 5699ms PL [FONE]
 103.94.8.239:5678 1964ms ID [INTERSATNET]
吼 178.212.66.43:5678 3509ms UA [TDV "Teleradio company "Yalta"]
ю 191.37.147.169:4145 4209ms BR [Infovale Telecom LTDA]
筐 102.68.73.210:10801 4557ms ZA [Telkom SA Ltd.]
 45.224.149.65:4153 4786ms EC [Nedetel S.A]
火 113.160.227.166:5678 735ms VN [VietNam Post and Telecom Corporation]
叼 78.8.174.26:1080 3094ms PL [Netia SA]
ю 103.138.165.134:5678 1349ms BD [Shadhinota]
ю 201.182.219.4:5678 3930ms BR [Itacell Telecom Ltda]
 178.134.71.138:37590 3145ms GE [JSC "Silknet"]
 45.123.25.73:54913 1695ms IN [CityOnline Services]
 103.82.13.89:5678 716ms ID [MORATELINDO]
拆 41.217.219.36:5678 3992ms MW [Skyband Corporation Limited]
ю 27.147.143.186:5678 4324ms BD [Link3 Technologies Limited]
佛 188.170.108.2:34159 4749ms RU [Ural Branch Of OJSC MegaFon Noyabrsk]
ю 131.108.60.22:3629 5555ms BR [PORTO COMERCIO SERVI?O DE COMUNICA?AO EIRELI - ME]
ю 103.114.97.202:5678 1931ms BD [Md Obaid Ullah Khan]
佛 212.19.7.134:5678 3307ms RU [Redcom LIR]
叼 190.119.167.11:5678 4626ms PE [America Movil Peru S.A.C.]
叼 124.105.35.236:5678 1198ms PH [Philippine Long Distance Telephone Co.]
ю 131.161.210.61:5678 5422ms BR [Videosat Servicos De Informatica Ltda]
吼 178.158.197.147:3629 6021ms UA [Maximum-Net LLC]
 103.25.45.109:4153 2023ms IN [Rainbow communications India Pvt Ltd]
 112.78.144.60:4145 7955ms ID [Biznet Networks]
 95.107.169.30:4145 3079ms AL ["Albanian Satellite Communications" sh.p.k.]
佛 94.181.174.77:4153 3587ms RU [CJSC "ER-Telecom Holding" Penza branch]
佛 195.222.107.85:4153 4336ms RO [Sigma Soft SRL]
佛 77.94.124.234:3629 6053ms RU [Bashinformsvyaz Company, RUMS, DSL]
别 212.98.147.58:4153 3477ms LB [TerraNet sal]
 200.32.105.86:4153 4075ms AR [Level 3 Argentina S.A]
葛 37.216.246.59:5678 4530ms SA [Etihad Etisalat]
吼 185.138.230.68:5678 3794ms UA [PE Aristambayeva Taisiia Anatolyevna]
 5.152.86.46:14888 3491ms GE [JSC "Silknet"]
 1.186.46.36:5678 2034ms IN [D-VoiS Broadband Private Limited]
 36.91.133.209:5678 4597ms ID [PT Telekomunikasi Indonesia]
吼 195.5.109.104:3629 2999ms UA [ISP INKO-NET LTD]
 91.82.9.56:5678 2691ms HU [INVITEL Zrt]
吼 176.104.58.213:3629 3767ms UA [UnderNet LLC]
叼 77.65.50.118:34159 2964ms PL [Inea S.A]
 116.197.129.170:4145 1598ms ID [FIBERNET]
火 27.72.73.143:4153 876ms VN [Newass2011xDSLHN]
ю 177.137.117.196:5678 4220ms BR [Digitotal Networks Telecomunica??es ltda]
ю 45.233.135.4:1080 6958ms BR [M M da Silva]
 62.103.186.66:4153 3105ms GR [OTEnet]
桂 59.125.141.168:5678 3714ms TW [Chunghwa Telecom Co., Ltd.]
 122.129.202.70:4153 1859ms ID [PT. Cyber Bintan]
 194.150.71.32:4153 3856ms IR [Resaneh Pardaz Sepahan Co]
 45.117.207.22:5678 1050ms IN [SRD Properties Pvt Ltd]
 85.94.160.212:5678 3748ms AD [Andorra Telecom SAU]
吼 195.64.235.233:4153 5975ms UA [Lekol LLC]
别 41.254.45.122:5678 3718ms LY [LTT Network Backbone and POPs]
 122.129.202.79:4153 746ms ID [PT. Cyber Bintan]
 112.78.170.27:2580 2326ms ID [BIZNET]
 103.102.15.165:1080 3484ms ID [GLOBALMEDIANET]
ю 45.235.151.58:3629 5114ms BR [F R BRAGA INFORMATICA ME]
 160.119.128.58:5678 7351ms GN [Skyvision Guinee SA]
 186.189.204.222:5678 3556ms GT [Comcel Guatemala S.A.]
佛 46.160.230.220:5678 3325ms RU [MIR]
 62.201.220.50:60212 3264ms IQ [IQ networks]
 103.122.154.2:4145 592ms ID [SUPERSISTEMULTIMA]
 202.154.186.198:4153 7962ms ID [PT SOLNET INDONESIA]
 36.92.161.59:5678 767ms ID [PT. Telekomunikasi Indonesia]
 190.247.170.68:5678 3769ms AR [Telecom Argentina S.A]
吼 5.182.26.126:4145 3309ms UZ [Best Internet Solution XK]
ю 186.208.183.1:3629 3880ms BR [Conectsul Solucoes EM Internet]
桂 159.192.97.129:5678 1014ms TH [CAT-BB]
 36.91.99.124:5678 1904ms ID [PT Telekomunikasi Indonesia]
 8.210.251.244:6666 2938ms HK [Alibaba (US) Technology Co., Ltd.]
ю 45.7.56.197:4153 4987ms BR [Leandro De Jesus Chaves]
 45.64.99.228:5678 2258ms ID [ARGON]
ю 45.7.56.226:4153 6828ms BR [Leandro De Jesus Chaves]
ю 45.164.43.234:4153 5206ms BR [ITANETBAHIA COMUNICAO MULTIMIDIA EIRELE]
佛 212.103.119.244:4153 3116ms RU [CJSC "ER-Telecom Holding" Bryansk branch]
 182.23.5.70:5678 4852ms ID [PT Aplikanusa Lintasarta]
佛 109.195.69.104:3629 4001ms RU [JSC "ER-Telecom Holding"]
ю 134.17.4.126:3629 6941ms BY [Mobile TeleSystems JLLC]
 184.162.233.180:3629 3821ms CA [Le Groupe Videotron Ltee]
佛 37.235.140.206:4145 3784ms RU [LANTA Ltd]
ю 202.40.177.94:5678 783ms BD [Ranks ITT]
吼 37.57.187.1:4153 2788ms UA [Triolan]
 186.159.3.43:51445 4210ms CO [Edatel S.a. E.S.P]
ю 179.127.193.18:4145 3978ms BR [Afinet Solucoes EM Tecnologia DA Informacao Ltda]
ю 191.7.85.206:4145 3512ms BR [Minas Telecom]
 212.31.100.138:4153 2994ms CY [CYTANET - Cyprus Telecommunications Authority]
ю 177.220.243.130:4153 3893ms BR [Vogel Solues em Telecom e Informtica S/A]
 185.240.80.2:4153 2649ms ES [Scan SAT Network SL]
 117.242.39.208:5678 2931ms IN [BSNL Internet]
 203.153.113.226:44071 4743ms ID [PT NettoCyber Indonesia]
 202.180.23.42:4153 716ms ID [PT. Transmedia Indonesia]
 103.111.29.42:5678 784ms ID [ICONPLN]
 46.32.2.158:4145 4337ms  []
桂 125.25.57.76:4145 1725ms TH [TOT Public Company Limited]
 186.1.189.6:4153 5170ms CO [Internexa S.a. E.S.P]
 168.228.224.68:3629 3595ms AR [Servicoop S.A.]
 202.137.26.5:4145 676ms ID [LINKNET]
仇 197.156.240.66:5678 3746ms NG [Accelon]
 217.218.242.55:1080 5497ms IR [Iran Telecommunication Company PJS]
叼 178.216.26.118:1080 3914ms PL [MSNET EU]
 190.13.84.219:4145 4170ms CO [TV AZTECA SUCURSAL COLOMBIA]
 5.160.72.149:43130 6594ms IR [Respina]
 14.142.128.237:33175 2923ms IN [Tata Communications Limited]
佛 78.107.233.204:3629 3496ms RU [PJSC "Vimpelcom"]
 46.28.72.70:4153 3553ms IR [Sefroyek Pardaz Engineering Co. LTD]
叼 77.65.131.188:4145 3941ms PL [Krzysztof Jan Klaptocz trading as Netservice]
 24.37.138.6:4145 3051ms CA [Le Groupe Videotron Ltee]
 185.230.105.146:4145 4876ms IQ [CNC Telecom Ltd]
 86.28.76.188:4145 2619ms GB [TalkTalk]
 185.67.100.105:4153 3593ms IR [Laser Company Ltd]
 31.30.71.188:4145 2856ms CZ [Vodafone Czech Republic]
 46.209.230.187:4145 3501ms IR [Respina]
 185.171.54.26:4153 3459ms IR [Sefroyek Pardaz Engineering Co. LTD]
桂 78.188.222.90:37754 4740ms TR [TurkTelecom]
 46.209.114.98:58719 3665ms IR [Respina]
 78.102.13.124:3629 3234ms CZ [Vodafone Czech Republic a.s.]
ю 27.147.219.102:5678 7162ms BD [Link3 Technologies Limited]
桂 88.255.185.198:1080 3032ms TR [Turk Telekomunikasyon Anonim Sirketi]
 91.187.63.236:5678 4143ms CZ [Nordic Telecom Regional s.r.o.]
ю 77.238.210.30:3629 2854ms BA [Telemach d.o.o. Sarajevo]
 202.43.182.3:4153 517ms ID [CEPATNET]
梆 202.84.79.48:5678 2107ms KH [CityLink Corporation]
 195.22.221.210:4145 4337ms CL [TELECOM ITALIA SPARKLE S.p.A.]
 43.246.143.242:9999 2210ms IN [R P World Telecom Pvt Ltd]
 81.218.45.196:5678 2991ms IL [BEZEQINT-CABLES]
拆 77.89.212.246:3629 6127ms MD [Orange Moldova Network]
吼 78.137.7.226:3629 3766ms UA [broadband]
 114.4.28.66:5678 4447ms ID [PTP-ISAT]
吼 159.224.244.11:3629 4229ms UA [Content Delivery Network LTD]
 36.95.69.11:5678 7763ms ID [PT. Telekomunikasi Indonesia]
 36.91.106.159:5678 5365ms ID [PT. Telekomunikasi Indonesia]
拆 202.21.125.198:14153 6385ms MN [Mobinet LLC]
 45.182.115.76:5678 5454ms AR [Laprida Global Services S.A.]
 96.9.66.187:1081 1163ms  []
 136.228.128.101:4153 906ms  []
 43.245.202.15:1099 5510ms  []
 92.51.89.126:44659 5610ms  []
 103.160.40.86:4145 1720ms ID [PT Wistel Teknologi Solusi]
 2.38.199.61:1080 3218ms IT [VODAFONE]
拆 187.190.64.42:35045 3647ms MX [Total Play Telecomunicaciones SA De CV]
 103.14.251.23:4153 1225ms  []
 136.228.128.51:4145 991ms  []
 92.242.254.12:14888 7622ms HR [Magic Net d.o.o]
 36.95.101.29:3629 697ms ID [PT. Telekomunikasi Indonesia]
 46.16.226.6:4145 3693ms  []
ю 190.186.59.102:5678 5781ms BO [Cotas Ltda.]
 85.197.32.251:4153 3975ms DE [NetCologne Gesellschaft fur Telekommunikation mbH]
 103.111.185.230:5678 1671ms ID [PT Cyberindo Aditama]
 185.97.121.197:4153 2745ms IT [Unitel S.R.L.]
 36.37.107.210:4153 7778ms ID [LINTASARTA]
 5.190.57.3:4153 5320ms IR [Iran Telecommunication Company PJS]
吼 91.193.125.123:3629 2875ms UA [Sergey Vyacheslavovich Gliga]
佛 5.188.145.251:4153 3446ms RU [CrystalNET Plus]
 45.116.115.6:4153 1949ms IN [Rainbow Communications India Pvt Ltd]
筐 105.27.152.206:45872 4295ms ZA [SEACOM Limited Networks]
叼 85.237.191.62:1080 3307ms PL [TKCHOPIN]
ю 177.37.176.181:4145 3812ms BR [Brisanet Servicos De Telecomunicacoes Ltda]
 5.178.217.227:31019 4292ms  []
ю 179.42.52.17:4153 4734ms BR [Meplo Empreendimentos Tecnologicos Ltda]
 2.183.8.145:4153 3840ms IR [Iran Telecommunication Company PJS]
葛 196.216.220.204:57856 3585ms SL [Ministry of Information and Communications, Government of Sierra Leone]
 92.154.23.196:1080 2740ms FR [Orange]
佛 31.173.251.198:40547 3396ms RU [MEGAFONSIB]
金 194.169.164.14:34334 5741ms XK [ITS Prishtine]
 185.134.96.234:33141 3632ms IR [Yaghoot Rayaneh Saveh Cooperative Co]
ю 177.66.112.221:38600 6832ms BR [Virtex Ltda]
 176.114.244.151:33722 2712ms CZ [Rychly drat, s.r.o.]
佛 176.123.218.6:18080 4558ms RU [Indikom LLC]
桂 1.179.151.165:31948 891ms TH [TOT Public Company Limited]
吼 159.224.125.193:3629 4549ms UA [Triolan]
 45.224.159.1:4145 4800ms AR [Summit S.A.]
吼 185.28.108.181:35130 4868ms UA [RTR-108 28]
ю 168.181.242.81:4145 7419ms BR [Brasilnet Servios E Telecomunicaes Ltda-Me]
 200.29.109.112:14888 6431ms CO [Empresas Municipales De Cali E.i.c.e. E.S.P.]
梆 92.47.62.133:1080 6374ms KZ [Kazakhtelecom Data Network Administration]
吼 31.41.112.80:60716 3297ms UA [TOV Vica-TV]
吼 24.139.143.226:4153 2804ms US [Liberty Cablevision of Puerto Rico]
 188.0.108.14:3629 5048ms  []
ю 177.84.222.65:4153 5125ms BR [BrNet Informatica]
ю 77.85.168.253:4145 2880ms BG [Bulgarian Telecommunications Company Plc.]
 37.152.163.46:4153 4019ms IR [Rahanet Zanjan Co. (Private Joint-Stock)]
吼 194.12.124.188:3629 4665ms UA [Lancom Ltd.]
 36.92.125.163:1080 912ms ID [PT. Telekomunikasi Indonesia]
叼 185.79.243.153:38431 4168ms PL [Opalka Jacek]
佛 37.61.178.95:4153 6128ms RU [Samara-TTK NET]
梆 192.159.39.30:3629 4314ms KZ [Kar-Tel LLC]
拆 196.3.100.45:4145 4310ms MZ [Eduardo Mondlane University]
 200.43.231.9:4153 4414ms AR [Telecom Argentina S.A.]
吼 91.202.133.37:4153 5957ms UA [Kirovohrade Computer Networks]
ю 123.200.22.234:4153 3960ms BD [Link3 Technologies Limited]
佛 37.205.81.48:3629 3511ms RU [ZSTTK]
 67.73.245.186:1080 3139ms CO [Level 3]
佛 95.77.16.197:52309 4176ms RO [UPC Romania]
吼 196.0.111.194:48009 3342ms UG [Uganda Telecom]
佛 31.28.6.141:3629 3379ms RU [Filanco LLC]
ю 45.6.231.94:4145 5376ms BR [Speed NET Informatica Ltda-me]
 36.95.48.181:5678 1238ms ID [PT. Telekomunikasi Indonesia]
叼 91.226.51.200:4145 3737ms PL [P.P.H.U AWIST]
 27.54.166.212:57995 2284ms  []
 176.98.95.105:30759 2810ms  []
 96.9.79.233:58618 1962ms  []
佛 109.94.182.128:4145 7529ms RU [MTS PJSC]
吼 178.212.64.52:49137 3195ms UA [TDV "Teleradio company "Yalta"]
 36.90.40.128:4145 1775ms ID [PT. Telekomunikasi Indonesia]
ю 45.232.249.62:4145 3852ms BR [Netuno DO Brasil Telecom Ltda]
ю 177.72.82.133:4153 7132ms BR [New Life Fibra]
 89.201.162.14:4153 3839ms HR [OT - Optima Telekom d.d.]
ю 213.169.34.215:3629 2616ms BG [A1 Bulgaria EAD]
ю 187.44.146.2:32139 4481ms BR [ITS TELECOMUNICACOES LTDA]
吼 139.60.13.25:1088 1907ms US [Bertram Communications LLC]
 36.94.130.176:34791 1011ms ID [PT. Telekomunikasi Indonesia]
 36.94.82.147:4145 5820ms ID [PT. Telekomunikasi Indonesia]
 103.232.64.228:4145 844ms ID [PT. KINEZ CREATIVE SOLUTIONS]
 191.98.195.246:4145 4173ms GT [INTERNET TELECOMUNICATION COMPANY DE GUATEMALA, S.A.]
佛 31.220.183.217:53356 6633ms RU [Regional Digital Telecommunication Company]
 178.134.153.205:14888 3375ms GE [JSC "Silknet"]
桂 101.109.255.18:49247 915ms TH [TOT Public Company Limited]
 36.95.56.58:5678 7724ms ID [PT. Telekomunikasi Indonesia]
佛 188.134.1.49:3629 7121ms RU [Z-Telecom]
 103.78.27.38:4145 662ms ID [PT Mora Telematika Indonesia]
别 80.70.22.16:4153 3801ms LV [Latvenergo]
佛 62.33.235.49:4153 3849ms RU [Joint Stock Company TransTeleCom]
ю 201.148.127.57:4145 4313ms BR [NEW MASTER PROVEDOR DE ACESSO A INTERNET]
吼 31.43.122.180:51372 2880ms UA [LOCALINUA]
桂 182.52.19.179:3629 1779ms TH [TOT Public Company Limited]
ю 45.7.177.223:39867 6940ms BR [Litoral Telecom]
 36.89.147.123:46636 5025ms ID [PT. Telekomunikasi Indonesia]
桂 31.145.190.108:4153 3025ms TR [Vodafone NET Iletisim Hizmetleri Anonim Sirketi]
 117.251.195.21:4153 1174ms IN [BSNL Internet]
 36.94.228.191:5678 5115ms ID [PT. Telekomunikasi Indonesia]
 36.67.251.85:5678 2163ms ID [PT. Telekomunikasi Indonesia]
 36.92.222.105:4145 5108ms ID [Telekomunikasi Indonesia]
叼 43.255.217.186:48326 1356ms PH [Sky Cable Corporation]
 36.67.192.251:54366 4026ms ID [PT. Telekomunikasi Indonesia]
ю 45.7.177.246:39867 4282ms BR [Litoral Telecom]
ю 37.17.9.140:8291 6256ms BY [A1 BLR]
 103.210.31.49:31433 1567ms IN [R G TECHNOSOLUTIONS PVT LTD]
ю 45.7.177.204:39867 7118ms BR [Litoral Telecom]
别 80.70.22.1:4153 2500ms LV [Latvenergo]
 209.13.96.165:39921 5303ms AR [Telefonica de Argentina]
吼 46.175.70.69:59376 4019ms UA [Mediana Ltd]
 36.67.251.229:4153 2388ms ID [PT. Telekomunikasi Indonesia]
 176.241.94.228:10801 3536ms IQ [Hayat ISP]
佛 62.183.98.181:4145 3141ms RU [Southen Telecommunication Maintainer]
吼 67.22.223.9:39593 2314ms US [Poka Lambro Telephone Coop]
佛 188.168.75.254:33654 5524ms RU [TTK-Retail]
葛 94.136.157.225:60030 5963ms SK [Minet-sk]
佛 79.165.225.234:4153 4026ms RU [CNT-network]
ю 177.10.200.110:4145 7509ms BR [ISPTEC Sistemas de Comunicao Eireli]
筐 196.27.107.231:55760 4216ms ZW [Zimbabwe Online (Private) Ltd.]
桂 185.169.181.26:4145 6293ms TR [Ates Dc]
ю 177.23.184.166:4145 4511ms BR [Infobarra Solucoes em Informatica Ltda]
ю 45.175.179.230:4145 4981ms BR [N W INFORMATICA LTDA-ME]
ю 187.4.165.90:4153 7007ms BR [Brasil Telecom S/A - Filial Distrito Federal]
梆 41.215.10.6:4145 4662ms KE [ACCESSKENYA]
拆 103.58.16.106:4145 3407ms MY [E-world Communication SDN BHD]
桂 1.0.133.100:51327 812ms TH [TOT Public Company Limited]
ю 177.8.170.122:1080 5483ms BR [Grupohost Comunicacao Multimidia Ltda]
 138.59.140.65:57669 4603ms AR [Grupo Fullsat SRL]
叼 194.31.33.50:1080 2946ms PL [Netia SA]
ю 180.211.183.30:32962 1107ms BD [Bangladesh Telecommunications Company Ltd.]
桂 182.52.229.57:4145 689ms TH [TOT Public Company Limited]
ю 85.196.136.1:4153 2708ms BG [Kentavar M Ltd]
 36.78.210.176:4145 796ms ID [PT. TELKOM INDONESIA]
葛 197.234.13.5:4145 5395ms SC [Intelvision]
梆 121.139.218.165:43295 3393ms KR [Korea Telecom]
佛 91.150.77.57:56921 6232ms RS [TELEKOM SRBIJA a.d.]
ю 180.211.191.94:4153 1055ms BD [Bangladesh Telecommunications Company Ltd.]
火 138.122.7.33:55170 7482ms VE [Lan-online C.A.]
 222.124.170.66:1080 1673ms ID [PT. TELKOM INDONESIA]
ю 179.96.28.225:4145 4492ms BR [G8 NETWORKS LTDA]
ю 103.115.255.209:36331 2097ms BD [Star Internet Service]
 117.206.83.122:44550 2788ms IN [BSNL Internet]
 37.152.162.33:4153 3807ms IR [Rahanet Zanjan Co. (Private Joint-Stock)]
ю 170.0.203.14:1080 4131ms BR [Carlos Henrique Santos de Oliveira ME]
 70.83.106.82:55801 2726ms CA [Le Groupe Videotron Ltee]
桂 1.0.132.249:4153 615ms TH [TOT Public Company Limited]
佛 185.61.94.70:43110 2951ms RU [Fortex Cjsc]
 185.87.70.171:4153 5008ms IT [Fowhe s.r.l]
佛 195.210.172.43:58350 3573ms RU [MTS PJSC]
ю 177.184.67.21:4145 3866ms BR [Multipla Servios Inteligentes]
 170.210.4.222:38432 5595ms AR [Red de Interconexion Universitaria]
 84.1.103.14:53718 3640ms HU [Magyar Telekom]
ю 170.84.48.230:4145 4693ms BR [VIP RIO TELECOMUNICAES LTDA - EPP]
桂 180.180.171.113:4145 1747ms TH [TOT Public Company Limited]
叼 103.4.94.178:41350 3130ms PK [HEC]
火 14.232.160.252:10801 3730ms VN [VNPT]
吼 77.121.5.131:1080 3114ms UA [Kyivski Telekomunikatsiyni Merezhi LLC]
 116.68.240.225:4153 2991ms IN [Star Broadband Services]
拆 93.117.72.27:55770 3196ms MD [Moldtelecom SA]
 46.36.105.58:4153 3615ms IR [PiroozOnline]
桂 49.231.174.185:4153 2003ms TH [Advanced Wireless Network Company Limited]
ю 123.200.25.130:4145 1970ms BD [Link3 Technologies Limited]
别 185.176.145.194:57746 5216ms LB [Pros-Services S.A.R.L.]
 202.148.31.172:44611 851ms ID [DNET-SBY]
 79.98.1.32:34746 3817ms IT [LINEACOM-CR-PE-79 98]
ю 177.73.248.26:55290 3582ms BR [Prompt Brasil Solucoes EM TI Ltda]
 168.228.51.197:41037 4038ms CR [Cooperativa de Electrificaci鲁n Rural de San Carlos R.L. (Coopelesca R.L.)]
桂 101.51.121.141:4153 3873ms TH [TOT Public Company Limited]
梆 154.79.242.178:10801 4491ms KE [Airtel KE Mobile Broadband]
 78.92.254.9:53718 5858ms HU [Magyar Telekom]
ю 103.149.104.161:4153 2047ms BD [fastnet]
 183.87.69.233:36185 3082ms IN [Syscon Infoway Pvt. Ltd]
梆 103.239.52.97:4153 1755ms KH [COGETEL Co., Ltd]
 103.12.246.89:4145 2033ms IN [Instant Cable Network PVT LTD]
 195.167.104.114:4153 3073ms GR [OTEnet]
金 46.99.135.154:4153 6160ms XK [IPKO Telecommunications LLC]
佛 178.252.199.46:4153 7779ms RU [JSC "Rosintel"]
桂 176.236.37.132:1080 2947ms TR [Tellcom Iletisim Hizmetleri A.S.]
ю 186.211.6.137:4145 4190ms BR [PortalSAT Telecom]
 103.248.248.146:1080 632ms ID [PT Globalnet Multi Data]
 180.211.91.179:5430 7774ms ID [PT. KINGS NETWORK INDONESIA]
ю 177.85.200.45:35933 7231ms BR [S. A. da Silva Junior]
佛 37.29.35.190:4145 7543ms RU [MegaFon-Moscow]
 202.158.49.140:39172 770ms ID [PT. Cyberindo Aditama]
梆 89.218.5.108:50733 6739ms KZ [JSC Kazakhtelecom]
 200.27.18.138:40210 6336ms CL [Telmex Chile Internet S.A.]
 179.40.75.1:61362 5598ms AR [Telefonica de Argentina]
 5.83.104.250:4153 3686ms IT [Seta S.R.L.]
佛 83.103.206.56:54321 3005ms RO [UPC Romania]
 43.225.163.209:4153 3072ms IN [Airnet Cable And Datacom Pvt Ltd]
佛 176.192.8.206:61339 3123ms RU [Net By Net Holding LLC]
ю 177.72.112.169:31164 6718ms BR [Prompt Brasil Solucoes EM TI Ltda]
梆 14.63.1.108:4145 1297ms KR [Korea Telecom]
ю 41.85.189.66:39475 3758ms BJ [Benin Telecoms Infrastructures SA]
火 14.232.160.247:10801 1793ms VN [VNPT]
叼 83.168.84.89:4153 5859ms PL [ESPOL-FH]
仇 202.79.40.97:36953 4406ms NP [WorldLink Communications]
 202.62.227.168:31606 1630ms IN [ORTELCOMMUNICATIONS]
火 113.160.247.115:4145 1803ms VN [VietNam Post and Telecom Corporation]
ю 45.232.226.78:52104 4303ms BR [Allyson Diniz Melo - ME]
 160.202.42.132:36917 7522ms ID [Jakarta 5 8 Iconpln]
佛 62.141.78.142:35632 5837ms RU [COMBELNET]
佛 46.188.82.63:4153 6510ms RU [2COM Co ltd.]
 89.43.5.134:3629 7953ms IR [Mobin Net Communication Company (Private Joint Stock)]
葛 82.137.250.156:4145 5693ms SY [190 Internet Service Provider]
佛 89.249.244.111:4145 3348ms RU [OOO "Gruppa MosLine"]
吼 109.86.225.146:4145 3475ms UA [Triolan]
桂 202.29.226.134:32241 1746ms TH [THAINET]
ю 186.208.118.102:4153 5004ms BR [Voipglobe Servicos De COM Multimidia VIA Internet]
佛 109.94.115.108:4145 7779ms RS [Astra Telekom DOO Beograd]
吼 94.153.209.22:3629 4249ms UA [Kyivstar UA]
 31.209.98.18:51688 3372ms CY [Multimax Iletisim Limited]
佛 79.143.225.152:31270 4723ms RU [MTS PJSC]
 46.225.251.206:1080 4434ms IR [Dadeh Gostar Asr Novin P.J.S. Co.]
 85.114.38.206:4153 5976ms HR [OT - Optima Telekom d.d.]
桂 202.29.231.46:61507 1969ms TH [THAINET]
佛 91.197.135.106:4145 6341ms RU [Comfort XXI Century Ltd.]
 45.189.184.42:4145 7410ms AR [Cooperativa Electrica Mixta Del Oeste Y Otros Servicios Publicos Limitada]
 84.236.185.247:61710 2602ms ES [ServiHosting Networks S.L.]
ю 177.12.177.21:4153 3820ms BR [Linxbr Telecomunicacoes Ltda]
ю 119.40.83.242:31841 1037ms BD [BDCOM Online Limited]
桂 1.179.173.114:4153 948ms TH [TOT Public Company Limited]
叼 185.51.92.108:51327 3630ms PT [BLU, S.A.]
ю 177.128.198.125:4153 3783ms BR [VOANET Telecomunicaes Ltda.]
火 1.55.241.4:4145 1935ms VN [FPTDYNAMICIP]
 1.186.40.157:39651 1065ms IN [D-VoiS Broadband Private Limited]
 180.250.170.210:40108 3968ms ID [PT. TELKOM INDONESIA]
桂 176.235.99.12:5678 3197ms TR [Tellcom Iletisim Hizmetleri A.S.]
佛 109.70.189.51:3629 4263ms RU [LTD "Elektrosvyaz"]
ю 177.124.184.72:39468 5907ms BR [R. Jose da Silva e Cia Ltda - Ondagil]
佛 81.163.36.210:42967 6387ms RU [SUBNET05]
 201.220.128.90:3000 2708ms HN [Cablecolor S.A.]
 80.82.147.1:4153 3867ms CZ [NETRON]
 114.6.88.238:36732 1124ms ID [PT. INDOSAT Tbk]
ю 186.235.187.14:4153 7176ms BR [GFT COMERCIO DE TELEFONIA E COMUNICACAO LTDA]
 190.7.231.210:4145 3446ms AR [Ipnext S.A]
ю 123.200.4.42:4145 1564ms BD [Link3 Technologies Limited]
仇 124.41.240.177:52480 4124ms NP [WorldLink Communications]
ю 170.84.50.225:4153 5377ms BR [VIP RIO TELECOMUNICAES LTDA - EPP]
 103.239.147.129:55438 2398ms IN [Fiberpipe communications pvt. ltd]
仇 5.56.133.57:1080 2556ms NL [Serverius]
 186.1.181.62:4153 3336ms CO [Dialnet de Colombia S.A. E.S.P.]
佛 91.202.79.10:3629 3378ms RU [PTLINE]
佛 92.42.8.21:4145 3979ms RU [KMVtelecom]
拆 88.85.97.150:4153 3715ms MK [Data Communication Provider NEOTEL]
 223.25.101.242:53150 7801ms ID [PT Indonesia Comnets Plus]
 178.72.162.242:4153 3400ms AM [Supercom LLC]
佛 188.93.64.242:4153 2945ms RU [Timer, LLC]
吼 5.153.140.180:4145 4866ms UA [LLC "FTICOM"]
仇 202.52.244.150:58841 2721ms NP [Mercantile Communications Pvt. Ltd]
桂 176.236.14.2:4153 2941ms TR [Tellcom Iletisim Hizmetleri A.S.]
吼 206.192.226.90:39593 3274ms US [LS Networks]
筐 41.162.107.130:1080 4328ms ZA [Neotel GAU]
 164.52.42.2:4145 2141ms HK [Capitalonline Data Service Co., LTD]
 103.10.56.190:4153 1743ms ID [PT METRASAT]
桂 84.51.56.123:4145 6571ms TR [Tellcom Iletisim Hizmetleri A.S.]
梆 175.195.33.102:4145 1689ms KR [Korea Telecom]
仇 124.41.211.196:52050 6431ms NP [WorldLink Communications]
 150.129.250.28:34209 2176ms IN [Triple Play Broadband Private Limited]
叼 124.105.29.181:13629 1035ms PH [Philippine Long Distance Telephone Co.]
拆 178.168.120.136:4153 4448ms MD [SC STARNET SRL]
ю 177.91.44.102:4153 5250ms BR [Carlos Henrique Santos de Oliveira ME]
 111.67.71.52:4145 1780ms ID [PT. Hawk Teknologi Solusi]
ю 103.199.155.26:1080 2348ms BD [Md. Nasir Uddin T/A SPEED TECH ONLINE]
桂 118.174.46.145:45764 1050ms TH [TOT Public Company Limited]
佛 89.22.17.62:43110 3820ms RU [Fortex AS48166]
 92.207.253.226:4145 5727ms GB [Gamma Telecom Ltd]
火 14.232.161.29:10801 1759ms VN [VNPT]
梆 116.212.131.174:36362 1841ms KH [Angkor Data Communication]
 195.228.123.142:4153 2797ms HU [Hungarian Telecom]
 103.113.3.242:4145 2007ms ID [Diskominfo Tangerang Selatan]
 202.62.227.45:31606 1568ms IN [ORTELCOMMUNICATIONS]
 59.91.122.1:46726 2649ms IN [Bharat Sanchar Nigam Ltd]
ю 103.115.255.86:36331 1230ms BD [Star Internet Service]
仇 124.41.240.140:59964 1377ms NP [WorldLink Communications]
叼 185.44.217.170:1080 2993ms PL ["TELKONEKT" SPOLKA Z OGRANICZONA ODPOWIEDZIALNOSCIA]
 93.63.75.62:1080 3053ms IT [Fastweb Networks]
佛 91.203.36.102:48641 4748ms RU [Russian company LLC]
 222.165.234.147:52667 1777ms ID [PT NettoCyber Indonesia]
拆 95.86.37.1:59341 3229ms MK [Inel Internacional - KANAL16]
 222.165.221.12:31523 4533ms ID [PT NettoCyber Indonesia]
梆 116.206.19.174:1080 3730ms KH [WiCAM Corporation Ltd.]
ю 177.74.119.222:39593 3801ms BR [EasyNet Work Limitada]
 190.149.216.74:48344 4395ms GT [Telgua]
 202.148.12.90:51302 773ms ID [DNET-SBY]
 138.19.193.114:65528 1813ms HK [Hong Kong Broadband Network Ltd]
 103.60.214.18:51754 1097ms IN [Sampath Venkateswara Communications Pvt Ltd.]
 103.233.153.58:1080 709ms ID [BIZNET]
 109.238.223.67:61150 5694ms CZ [Planet A, a.s.]
拆 89.41.106.8:4145 3905ms MD [JSC "Moldtelecom" S.A]
ю 191.243.72.34:4145 4388ms BR [Telecom Conectividade]
ю 182.48.70.154:38440 4342ms BD [Race Online Ltd.]
 77.43.1.226:4153 3893ms IT [Irideos S.P.A.]
佛 77.108.90.3:1099 3384ms RU [OJSC Comcor]
拆 103.220.5.254:4145 1728ms MY [Jenexus Holding SDN BHD]
ю 138.94.49.70:1080 5001ms BR [Speed Service - Internet]
[...]
ю 191.6.133.166:4145 4996ms BR [NET.COM TELECOMUNICACOES EIRELI]
叼 152.32.78.24:4145 1798ms PH [ComClark Network & Technology Corp]
拆 89.28.120.19:39142 3067ms MD [SC STARNET SRL]
ю 131.0.143.1:4145 4046ms BR [Mgnetmoc Ltda]
吼 109.86.244.225:57649 4278ms UA [Triolan]
吼 109.86.219.161:3629 6237ms UA [Triolan]
佛 195.239.178.110:39925 6094ms RU [OJSC VimpelCom]
 200.6.175.10:59341 6164ms CO [EPM Telecomunicaciones S.A. E.S.P.]
ю 121.200.60.122:4153 2211ms BD [Drik ICT Ltd]
 185.139.56.133:4145 3185ms GE [Datacenter LTD]
 103.12.150.254:37983 835ms HK [Photon Link Data Center]
ю 103.239.255.170:58733 1223ms BD [Carnival Internet]
ю 213.226.11.149:59086 5941ms BG [Mobiltel EAD]
佛 217.25.221.60:4145 4408ms RU [Omskie kabelnye seti Ltd.]
 109.238.208.138:51372 2913ms CZ [Planet A, a.s.]
梆 203.189.141.56:4153 750ms KH [ONLINE]
叼 103.5.62.37:4153 864ms PH [Cablelink Iblaze]
 190.4.205.226:4153 3575ms CL [CTC. CORP S.A. (TELEFONICA EMPRESAS)]
 79.106.166.154:1080 3532ms AL [Albtelecom Sh.a.]
桂 88.255.132.179:1082 3357ms TR [TurkTelekom]
佛 84.54.202.216:4145 6166ms RU [Stavropol branch of OJSC Rostelecom]
 149.3.30.3:4153 3679ms GE [JSC "Silknet"]
 213.96.16.193:4145 3654ms ES [Telefonica De Espana SAU]
 103.57.80.48:4145 893ms IN [Allnet Broadband Network Pvt Ltd]
 181.209.103.98:5678 5126ms AR [ARSAT - Empresa Argentina de Soluciones Satelitales S.A]
 213.96.31.253:4145 3396ms ES [Telefonica De Espana SAU]
吼 82.207.56.202:4145 2883ms UA [UKRTELECOM]
桂 185.208.100.72:4145 3648ms TR [Guneydogu Telekom int.bil. ve ilt. hiz. tic. ltd. sti.]
吼 67.204.21.1:64312 2209ms US [FiberLight, LLC]
别 213.101.151.4:1080 3419ms LT [Tele2 AB]
 200.52.144.170:33865 4128ms HN [Redes y Telecomunicaciones]
 201.158.120.41:4153 4086ms AR [Cibernek SRL]
 103.84.131.14:4153 2475ms IN [Elxer Communications Private Limited]
筐 41.170.12.92:49142 4373ms ZA [Liquid Telecommunications South Africa (Pty) Ltd]
 36.66.192.35:38420 874ms ID [PT. Telekomunikasi Indonesia]
 103.105.40.161:4145 1950ms IN [Minnal Digital Network Private Limited]
桂 1.20.137.82:32241 1791ms TH [TOT-MOBILE]
佛 83.219.139.66:4145 3155ms RU [TIS-DIALOG]
吼 91.250.61.5:3629 6514ms UA [Leased line ISP Format]
吼 188.163.170.130:35578 3206ms UA [Kyivstar UA]
ю 177.128.198.26:4153 5238ms BR [VOANET Telecomunicaes Ltda.]
ю 186.211.105.202:43573 3773ms BR [GGNET TELECOMUNICA锟斤拷ES LTDA]
 116.213.52.252:4145 447ms ID [PT. BERCA HARDAYAPERKASA]
 62.99.76.231:1080 2940ms ES [Euskaltel S.A.]
火 1.53.137.164:4145 1924ms VN [Vietnam Internet Network Information Center]
佛 109.245.236.109:4145 3700ms RS [Telenor d.o.o Beograd]
佛 109.122.81.9:57553 4035ms RS [Moja Supernova Doo Beograd]
 103.69.20.108:4145 728ms IN [Allnet Broadband Network Pvt Ltd]
佛 185.33.200.156:4153 6302ms RU [SEVEREN-VOLGA]
火 186.96.71.222:4153 3399ms VE [Gold Data C.A.]
梆 37.228.65.107:51032 6446ms KZ [JSC "KazTransCom"]
金 46.99.252.42:10805 5772ms XK [Ipko Telecommunications]
ю 168.181.196.33:4145 5328ms BR [Windx Networks]
桂 41.194.37.106:49867 4700ms TZ [Intelsat Global Service Corporation]
 213.97.98.89:4153 3545ms ES [Telefonica de Espana SAU]
筐 155.0.181.254:41174 4730ms ZM [Zambia Research and Education Network]
梆 197.254.7.86:4145 3100ms KE [COMMSOL]
ю 179.191.13.21:4153 6969ms BR [Atalink Telecomunicacoes]
 185.132.228.57:4145 5905ms IT [Dieffeitalia.it S.r.l.]
ю 190.104.26.227:33638 7134ms BO [Telef鲁nica Celular de Bolivia S.A.]
 103.43.129.227:4153 3622ms ID [ACSATA]
桂 113.53.29.218:45189 2075ms TH [TOT Public Company Limited]
 170.254.92.198:4153 4692ms  []
ю 45.160.160.12:4153 3811ms BR [DIGITAL COMUNICAO VIRTUAL EIRELI]
 175.106.18.201:34666 7466ms ID [SOLONET]
叼 37.131.164.124:59341 5991ms PL [KSU Provector Network]
 103.108.98.1:38077 4909ms IN [Wingsnet Internet Pvt. Ltd]
ю 200.199.227.42:4153 4184ms BR [Brasil Telecom S/A - Filial Distrito Federal]
拆 43.250.127.98:4153 1493ms MN [Wicom Networks]
 182.253.108.50:30448 1945ms ID [Biznet Networks]
梆 119.82.251.250:31678 4024ms KH [EZECOM limited]
吼 50.250.56.129:48380 2622ms US [Comcast Cable Communications, LLC]
 191.97.3.198:1080 4436ms CO [TV AZTECA SUCURSAL COLOMBIA]
 117.242.147.73:46152 4133ms IN [BSNL Internet]
ю 170.244.64.198:31476 3733ms BR [Flash Servicos EM Fibra Optica Ltda - ME]
佛 91.143.222.146:4153 2717ms RS [ABSOLUT OK]
 203.77.240.76:4145 1880ms ID [PT. Total Info Kharisma]
 188.72.6.98:50321 6709ms IQ [AL-SARD FIBER Co. for Internet Fiber and Optical Cable Services /Ltd.]
佛 178.221.41.10:3629 2884ms RS [Telekom Srbija Internet Backbone Network]
 103.111.22.26:58563 2347ms IN [Kwikzo Telecomm Pvt Ltd]
ю 62.73.127.98:10801 4572ms BG [Bulgarian Telecommunications Company Plc.]
梆 102.176.180.6:4153 4056ms KE [Syokinet Solutions Limited]
叼 213.6.33.110:4145 3528ms PS [Palestine Telecommunications Company]
 85.135.95.218:4145 3255ms CZ [PODA a.s.]
佛 91.207.238.107:45627 4335ms RU [NPF-LAI]
ю 103.19.255.113:43716 2098ms BD [Dhaka tech]
佛 95.181.214.105:3629 3976ms RU [ZAO "VOLS"]
佛 87.103.174.147:3629 3299ms RU [PJSC Rostelecom]
桂 176.235.164.177:40276 3155ms TR [SONETINTERNET]
 213.0.92.122:4153 3849ms ES [TDENET (Red de servicios IP)]
 36.67.240.73:50892 845ms ID [PT. Telekomunikasi Indonesia]
梆 36.37.139.2:59296 897ms KH [VIETTEL (CAMBODIA) PTE., LTD]
梆 197.232.47.102:52567 4745ms KE [Jamii Telecommunications Limited]
叼 91.192.2.168:30226 4579ms PL [TECH-MEDIA Michal Kaluzny]
桂 85.99.227.200:44550 4159ms TR [TurkTelecom]
 103.85.4.19:4153 4607ms ID [PT SARANA CIPTA KOMUNIKASI]
ю 200.240.250.92:4145 7149ms BR [Adylnet Telecom]
 37.26.86.206:4145 2935ms AL [ATU]
筐 41.162.186.2:45965 4012ms ZA [Neotel GAU]
ю 45.228.96.34:33406 5019ms BR [Fale NET Servicos De Comunicacao Ltda - ME]
吼 67.204.1.222:64312 3569ms US [FiberLight, LLC]
吼 50.236.148.254:31699 2503ms US [Comcast Cable Communications, LLC]
 43.248.24.226:4145 1736ms ID [Neuviz]
吼 50.197.210.138:32100 5546ms US [Comcast Cable Communications, LLC]
梆 217.29.18.206:4145 3455ms KG [Saimanet Telecomunications]
 122.50.6.42:4145 1895ms ID [PT Mora Telematika Indonesia]
ю 201.28.87.43:4145 3776ms BR [Vivo]
 190.210.93.9:4153 5586ms AR [NSS S.A.]
吼 178.216.0.168:39316 5754ms UA [Chks LLC]
 202.162.214.250:5434 2558ms ID [PT Indonesia Comnets Plus]
 46.225.241.19:4145 4331ms IR [Dadeh Gostar Asr Novin P.J.S. Co.]
佛 194.8.130.36:4153 4713ms RU [AS34676 and AS6854]
吼 92.242.126.154:44718 4482ms UA [LLC "FTICOM"]
 46.35.249.189:49795 3715ms  []
 200.41.182.243:4145 4858ms AR [Telefonica de Argentina]
 190.182.88.214:30956 6523ms CO [Metrotel SA ESP]
 114.110.21.50:59157 698ms ID [BITEK]
叼 78.133.186.115:4153 2753ms PL [GTS Polska]
 195.29.155.98:58617 3025ms HR [Hrvatski Telekom d.d]
吼 50.242.122.141:32100 3710ms US [Comcast Cable Communications, LLC]
筐 165.165.134.1:4153 4667ms ZA [Telkom SA Ltd.]
吼 46.63.81.195:4145 2862ms UA [X-city Customers and Private]
桂 101.109.251.42:4145 3627ms TH [TOT Public Company Limited]
ю 177.69.19.49:4145 5732ms BR [ALGAR TELECOM S/A]
吼 178.136.56.246:46846 5702ms UA [CS Vega Odessa]
桂 1.4.157.35:36202 1099ms TH [TOT Public Company Limited]
 103.94.133.94:4153 720ms ID [PT CITRA AKSES INDONUSA]
桂 183.88.240.53:4145 1845ms TH [Triple T Internet Company Limited]
ю 103.109.58.97:1080 1002ms BD [Skynet Chowmuhani]
佛 213.108.18.34:43902 4401ms RU [OOO "MediaSeti"]
 150.129.171.35:41889 4163ms IN [GTPL SK Network Pvt Ltd]
 117.242.154.112:4153 2465ms IN [BSNL Internet]
吼 50.192.195.69:39792 4526ms US [Comcast Cable Communications, LLC]
叼 201.217.55.97:43110 4324ms PY [CO.PA.CO]
 178.48.68.61:4145 2915ms HU [Liberty Global B.V.]
 77.48.137.65:50523 5822ms CZ [Vodafone Czech Republic a.s.]
 103.105.70.9:30538 716ms ID [PT iForte Global Internet]
 193.151.118.207:39049 3547ms HU [Tarr Kft.]
仇 124.41.240.66:59534 1364ms NP [WorldLink Communications]
 45.125.63.46:44110 1114ms IN [Gigantic Infotel Pvt Ltd]
ю 167.249.170.26:4145 4142ms BR [Wiki Telecomunicacoes Eireli]
筐 41.170.4.42:4153 6873ms ZA [Liquid Telecommunications South Africa (Pty) Ltd]
佛 80.79.66.82:3629 3537ms RU ["OBIT" Ltd.]
 201.184.135.155:4145 2928ms CO [EPM Telecomunicaciones S.A. E.S.P.]
拆 37.26.136.181:39323 3214ms MD [JSCC Interdnestrcom]
ю 177.72.6.18:4145 4509ms BR [DataSafeIT Solues em Tecnologia]
ю 109.105.205.232:39903 3141ms BA [Split network]
佛 95.154.75.180:45735 6863ms RU [OCTOPUSNET-NAT-POOL13 1bn]
 181.78.8.43:5678 3196ms CO [Ufinet Panama S.A.]
ю 115.127.23.165:35294 1072ms BD [BRACNet Limited]
ю 138.99.93.224:4145 6734ms BR [Fgtech Informatica Ltda]
吼 37.57.40.167:4145 4220ms UA [Triolan]
 152.204.128.46:35483 6420ms CO [Colombia Telecomunicaciones S.a. ESP]
叼 192.166.222.56:4153 6627ms PL [Artur Bogusz trading as WIFI.KLODZKO.PL Sp. J]
吼 62.122.201.246:50129 3895ms UA [Uteam LTD]
佛 95.172.44.186:3629 6107ms RU [LLC MegaMax]
ю 82.103.118.42:1099 3090ms BG [A1 Bulgaria EAD]
 36.91.136.10:4153 3573ms ID [PT Telekomunikasi Indonesia]
桂 182.52.70.117:4145 1622ms TH [TOT Public Company Limited]
筐 41.160.100.204:1080 7352ms ZA [Neotel GAU]
佛 77.37.240.23:4145 3036ms RU [NCNET]
 81.17.81.34:4145 3535ms AZ [Bakinternet ISP]
 103.114.0.3:4153 1937ms IN [Varsha Datacom Service Pvt Ltd]
佛 185.17.134.149:61535 3207ms RU [JSC Elektrosvyaz]
 36.89.183.77:31802 3288ms ID [PT. Telekomunikasi Indonesia]
梆 119.82.252.106:40782 1005ms KH [EZECOM limited]
ю 45.6.15.79:4145 4856ms BR [G-link Telecom]
吼 185.94.219.160:1080 3877ms UA [LITECH-ISP]
佛 79.101.106.74:33608 2763ms RS [TELEKOM-SRBIJA]
ю 180.211.162.114:44923 1011ms BD [Bangladesh Telegraph & Telephone Board]
佛 188.247.39.14:43032 6077ms RU [Unico network]
吼 50.242.100.89:32100 2011ms US [Comcast Cable Communications, LLC]
仇 124.41.213.201:54806 1580ms NP [WorldLink Communications]
ю 200.33.152.207:47926 4726ms BR [Thiago Borsato Nazzi ME]
 150.129.170.13:44502 1255ms IN [GTPL SK Network Pvt Ltd]
 154.62.132.163:4153 5516ms GB [Cogent Communications]
 190.145.77.219:4153 3003ms CO [Telmex Colombia S.A.]
吼 38.133.200.94:31596 3210ms US [Single Digits Inc]
 201.184.75.210:4145 6246ms CO [EPM Telecomunicaciones S.A. E.S.P.]
梆 121.134.198.156:4145 1387ms KR [Korea Telecom]
桂 101.51.106.70:39164 2121ms TH [TOT Public Company Limited]
 43.225.187.186:4145 3417ms ID [SOLNET]
桂 110.77.197.177:4145 730ms TH [CAT-BB]
佛 37.235.153.214:4145 3680ms RU [LANTA Ltd]
ю 143.255.52.102:53043 4806ms BR [Oxente NET Empreendimentos Ltda - EPP]
佛 46.254.217.67:61781 3362ms RU [Ivanteevskie telecommunicacii Ltd]
 103.142.164.37:4145 1166ms IN [All Time Tele Infra Pvt Ltd]
吼 77.244.42.178:4145 3385ms UA [Volia Kharkov]
葛 195.68.235.96:4153 3294ms SK [Prva internetova]
 181.129.62.2:47377 3128ms CO [EPM Telecomunicaciones S.A. E.S.P.]
桂 125.25.184.10:4145 4016ms TH [TOT Public Company Limited]
ю 41.223.234.116:37259 3688ms BF [Alink Telecom Faso v]
ю 200.225.140.130:36564 6914ms BR [Carangola Telecomunicacoes Eireli]
葛 41.223.108.13:1080 4108ms SO [Golis Telecom Somalia]
桂 1.20.220.79:4145 3697ms TH [TOT-MOBILE]
吼 184.105.134.166:48324 5177ms US [Hurricane Electric]
佛 185.123.194.28:3629 4386ms RU [OOO Kurier]
叼 176.103.74.89:4145 3853ms PL [Interkonekt S.C. Barczyk Pawel]
仇 103.28.86.241:57230 4121ms NP [Alternate ISP]
叼 93.105.171.100:4153 3725ms PL [Vectra S.A]
ю 27.147.217.194:51873 4254ms BD [Link3 Technologies Limited]
 85.117.56.74:4145 3370ms GE [Caucasus Online Ltd.]
佛 92.86.33.126:1080 3261ms RO [Romtelecom]
筐 41.160.6.186:59881 7129ms ZA [Neotel GAU]
佛 176.100.115.172:4153 4163ms RU [REAL]
ю 177.22.111.246:4145 4983ms BR [Speed Travel Comunicao Multimdia Ltda - ME]
吼 95.158.63.61:4145 2853ms UA [Company with additional responsibility ""BEST"]
吼 148.77.34.200:54321 2841ms US [Optimum Online]
ю 200.181.125.74:4153 7251ms BR [Brasil Telecom S/A - Filial Distrito Federal]
拆 187.141.129.86:4153 2755ms MX [Uninet S.A. de C.V.]
佛 185.17.132.158:4145 4454ms RU [JSC Elektrosvyaz]
佛 46.227.162.98:33802 4265ms RU [Avelacom]
ю 59.152.111.241:41542 2157ms BD [Race Online Ltd.]
ю 177.69.45.188:33219 4235ms BR [ALGAR TELECOM S/A]
火 14.177.235.178:4145 1709ms VN [VNPT]
拆 43.228.131.115:32992 1261ms MN [MCS Com Co Ltd]
 202.60.225.49:56894 1491ms HK [Superhub Ltd.]
 175.106.17.222:43409 1877ms ID [SOLONET]
梆 197.232.43.224:1080 2758ms KE [Jamii Telecommunications Limited]
佛 37.235.206.211:4145 3672ms RU [LANTA Ltd]
佛 185.17.134.185:31388 3946ms RU [JSC Elektrosvyaz]
 61.8.75.186:1080 473ms ID [PT Aplikanusa Lintasarta]
 117.206.155.82:34883 3522ms IN [BSNL Internet]
ю 103.114.98.205:1080 1115ms BD [Skynet Chowmuhani]
拆 175.139.179.65:41527 703ms MY [Telekom Malaysia Berhad]
 36.37.104.98:34040 581ms ID [LINTASARTA]
筐 41.180.82.158:4153 5679ms ZA [X-dsl Networking Solutions]
 62.201.233.59:4145 3338ms IQ [FTTH-subrange1]
吼 37.57.3.244:1080 6442ms UA [Triolan]
佛 188.246.181.50:4145 3058ms RU [OOO WestCall Ltd]
吼 91.250.61.113:3629 3539ms UA [Leased line ISP Format]
 181.166.106.224:42315 5704ms AR [Telecom Argentina S.A]
ю 177.73.248.38:55290 4786ms BR [Prompt Brasil Solucoes EM TI Ltda]
 36.94.8.19:4153 3972ms ID [PT. Telekomunikasi Indonesia]
 36.95.16.93:5678 593ms ID [PT. Telekomunikasi Indonesia]
拆 77.89.204.254:4145 3129ms MD [Orange Moldova Network]
佛 80.65.28.57:30924 4411ms RU [Orion Telecom LLC]
 36.91.45.10:51299 979ms ID [PT. Telekomunikasi Indonesia]
 36.91.54.25:55543 2046ms ID [PT Telekomunikasi Indonesia]
 36.89.192.115:55337 2653ms ID [PT. Telekomunikasi Indonesia]
 88.146.196.181:4153 3050ms CZ [UPC Czech]
 36.89.218.67:1080 1488ms ID [PT. Telekomunikasi Indonesia]
桂 1.10.189.133:50855 1988ms TH [TOT Public Company Limited]
佛 89.251.144.37:30048 3774ms RU [MTS PJSC]
 36.89.10.51:44268 1083ms ID [PT. Telekomunikasi Indonesia]
ю 195.24.61.7:51544 2988ms BG [Orbitel customer and internal]
佛 176.197.5.218:4153 4442ms RU [Goodline.info]
 36.89.149.173:4145 928ms ID [PT. Telekomunikasi Indonesia]
ю 177.54.195.48:4145 7035ms BR [MT.NET - Servios de Internet Ltda-ME]
 119.243.95.62:1080 2410ms JP [BIGLOBE Inc.]
 36.92.114.106:5678 1055ms ID [PT. Telekomunikasi Indonesia]
吼 37.57.15.43:47233 4327ms UA [Triolan]
吼 178.216.2.229:1488 2736ms UA [Chks LLC]
 36.67.223.231:5678 7968ms ID [PT. Telekomunikasi Indonesia]
 185.99.177.22:4153 2785ms CZ [ISP Alliance a.s.]
别 86.100.63.127:4145 4007ms LT [Balticum TV network]
 131.221.165.53:4153 4570ms CL [Pacifico Cable SPA.]
ю 177.105.232.1:4153 5032ms BR [Internet Pinheirense Ltda - ME]
 36.67.63.239:38071 3564ms ID [PT. Telekomunikasi Indonesia]
 185.47.184.253:45463 2657ms HU [Macronet System Kereskedelmi es Szolgaltato Kft]
 36.66.172.121:37552 1534ms ID [PT. Telekomunikasi Indonesia]
 37.17.169.80:46768 3383ms HU [in Szervernet]
桂 118.172.47.97:51327 3737ms TH [TOT Public Company Limited]
叼 213.6.144.78:4153 4647ms PS [Palestine Telecommunications Company]
 36.66.36.251:4153 7930ms ID [PT. Telekomunikasi Indonesia]
桂 182.53.197.156:43574 2086ms TH [TOT Public Company Limited]
仇 196.50.7.11:4153 4708ms NG [CUSTOMER VI]
桂 182.52.51.10:35719 788ms TH [TOT Public Company Limited]
吼 46.172.69.163:32047 6495ms UA [Kharkov RostNET]
叼 31.179.224.42:43840 6717ms PL [UPC Polska Sp. z o.o]
佛 176.98.156.64:4145 4452ms RU [PE Aliev Magomed Kadievich]
ю 177.36.159.34:4145 3933ms BR [Gstn DO Brasil Ltda]
佛 31.163.202.55:3629 6476ms RU [OJSC Rostelecom]
佛 5.141.86.233:60705 3270ms RU [Rostelecom networks]
佛 192.162.193.243:54313 4434ms RU [Sigma-Net Ltd]
吼 31.43.33.56:4153 7285ms UA [Ukrainian Telecommunication Group LLC]
桂 88.255.106.27:1080 3232ms TR [TurkTelekom]
佛 31.15.89.51:1099 4667ms RU [MTS PJSC]
葛 5.22.154.50:32127 3050ms SK [NEVERNET, s.r.o.]
佛 31.28.99.25:55767 3328ms RU [INTERRA telecommunications group]
桂 95.9.194.13:30436 5489ms TR [TurkTelekom]
吼 77.120.163.103:42208 4493ms UA [Volia Kharkov]
佛 31.10.110.132:4145 3638ms RU [CJSC "AVIEL"]
佛 78.29.32.35:3629 6469ms RU [Intersvyaz-2 JSC]
 36.66.36.252:4153 1117ms ID [PT. Telekomunikasi Indonesia]
桂 183.88.214.88:4145 713ms TH [Triple T Internet Company Limited]
ю 185.114.183.217:10801 6139ms BG [internet pools]
 27.106.84.186:4153 2221ms IN [Syscon Infoway Pvt. Ltd]
吼 197.221.158.186:1080 6915ms UG [Airtel Uganda]
桂 176.235.99.114:43919 3128ms TR [Tellcom Iletisim Hizmetleri A.S.]
叼 200.48.129.124:31246 6474ms PE [Telefonica del Peru S.A.A.]
佛 94.247.241.70:51006 3128ms RU [Teleport Sankt-Peterburg Networks]
佛 81.12.169.254:4153 3261ms RO [Vodafone RO]
火 168.90.92.34:4145 4857ms VE [IFX Networks Venezuela C.A.]
吼 50.192.49.5:32100 5803ms US [Comcast Cable Communications]
桂 101.51.141.20:4153 960ms TH [TOT Public Company Limited]
佛 109.68.189.22:54643 6488ms RU [OOO Suntel]
葛 217.145.199.45:56746 4248ms SK [Slovanet a.s.]
仇 200.85.169.18:50577 4108ms NI [IBW Communications]
 14.102.64.209:60616 4334ms IN [WORLDPHONE]
拆 196.28.234.66:1080 3523ms MZ [Telecomunicacoes de Mocambique]
 109.238.222.5:42401 4837ms CZ [Planet A, a.s.]
佛 82.200.55.38:4145 6689ms RU [ZSTTK]
 109.122.243.88:4145 3903ms IR [Farabord Dadeh Haye Iranian Co.]
吼 109.87.143.67:10801 3486ms UA [Triolan]
ю 88.213.214.254:4145 2673ms BG [Netbox LTD]
吼 12.218.209.130:13326 5287ms US [AT&T Services]
吼 12.11.59.114:1080 3886ms US [AT&T Services]
桂 182.52.51.181:3629 1024ms TH [TOT Public Company Limited]
 118.99.67.245:5678 811ms ID [Biznet Networks]
佛 5.166.57.222:49710 3176ms RU [CJSC "ER-Telecom Holding" Yekaterinburg branch]
 175.101.15.35:4153 1955ms IN [ExcellMedia Pvt Ltd]
ю 138.99.93.227:4145 4558ms BR [Fgtech Informatica Ltda]
吼 5.58.47.25:3629 2823ms UA [Columbus]
 43.251.214.14:41993 5743ms IN [World Phone Infrastructure services private ltd]
ю 27.123.255.82:47094 1949ms BD [Kazi Sazzad Hossain T/A Millennium Computers & Networking]
梆 1.212.181.131:4145 1078ms KR [LG DACOM Corporation]
筐 196.41.102.130:60216 5245ms ZA [Cybersmart]
吼 62.122.201.241:33704 3939ms UA [Uteam LTD]
ю 191.53.112.170:35618 3955ms BR [Rede Brasileira de Comunicacao S/A]
吼 91.230.199.174:32151 3407ms UA [Elektron-Service LLC]
吼 200.108.196.108:4145 4652ms UY [Tecnowind S.A.]
桂 1.179.183.73:61468 4135ms TH [TOT Public Company Limited]
桂 1.179.181.213:30500 4029ms TH [TOT Public Company Limited]
ю 177.137.227.14:4145 7090ms BR [Dinamica Telecomunicacoes Ltda]
 36.66.177.168:43340 7947ms ID [PT. Telekomunikasi Indonesia]
桂 1.179.147.5:52210 4167ms TH [TOT Public Company Limited]
吼 196.0.111.186:46048 3455ms UG [Uganda Telecom]
拆 1.32.59.217:31981 764ms MY [Telekom Malaysia Berhad]
桂 1.20.227.66:4145 1076ms TH [TOT-MOBILE]
桂 1.20.184.75:4153 3734ms TH [TOT-MOBILE]
桂 182.52.51.101:4153 774ms TH [TOT Public Company Limited]
 175.106.17.62:49238 1508ms ID [SOLONET]
佛 109.101.196.50:4145 4416ms RO [Romtelecom]
 202.158.49.141:39172 1461ms ID [PT. Cyberindo Aditama]
 136.232.116.2:43314 6989ms IN [Reliance Jio Infocomm Limited]
桂 1.20.96.164:4153 3829ms TH [TOT-MOBILE]
桂 1.20.96.30:4153 7207ms TH [TOT-MOBILE]
 195.175.42.18:4153 3017ms DZ [TTnetTurkTelekom]
拆 1.9.213.114:4153 3557ms MY [Tmnet, Telekom Malaysia Bhd.]
叼 91.150.189.122:60647 2900ms PL [Skyware Sp. z o.o.]
吼 50.235.92.14:32100 3986ms US [Comcast Cable Communications, LLC]
 197.221.90.54:56810 6663ms GH [Internet Solutions Ghana]
叼 91.237.161.211:56889 3119ms PL [Global Polska Tomasz Zaplacinski - Sieniawa]
火 210.245.51.15:4145 859ms VN [FPT-STATICIP]
吼 64.124.145.1:1080 3556ms US [Zayo Bandwidth]
 24.37.245.42:51056 2979ms CA [Le Groupe Videotron Ltee]
佛 193.29.187.226:9050 5263ms RO [THC Projects SRL]
 43.224.10.31:6667 5157ms IN [gtpl hariom world vision]
 181.129.70.82:44357 2933ms CO [EPM Telecomunicaciones S.A. E.S.P.]
佛 176.106.126.217:4153 2917ms RS [Team-Net SZR Mihajlovic Radovan Preduzetnik]
佛 79.137.225.135:4153 3467ms RU [Hosting and Colocation Services]
梆 81.18.34.98:47680 5828ms KZ [Radiobaylanys LLP]
桂 118.172.181.147:51411 786ms TH [TOT Public Company Limited]
佛 77.232.150.107:4153 3476ms RU [KB Rubin Ltd.]
ю 180.211.179.150:40153 2338ms BD [BTCL Info-bahan-Porject]
拆 202.21.113.86:4153 1241ms MN [Mobinet Customer]
佛 37.221.204.206:35433 6129ms RU [OBIT Ltd.]
 182.23.79.162:50862 652ms ID [PT Aplikanusa Lintasarta]
拆 41.217.219.53:54479 3827ms MW [Platinum Static Assignment]
佛 46.8.247.3:38279 4189ms RU [NetArt Group s.r.o.]