SOCKS5 Proxy list updated at 2021-09-19 14:00:01 GMT+7
Support us:
BTC: 1GeZeEnrV4SibfS5yDwuzY3w7n94ZE3zMQ
ETH: 0x6dce795c56d1485213d689ef98277c9fb7e7a6d2
XMR: 8AGZWnqriYzQjq7hzoTzVWbQNvGeke8AHdk1tVHFqUtfX1oqDY632kwaSnZZqEtFzD4fZN3CUfC7JXy5eM5MBfhbFmcB3h3
LTC: MAG1cWWEpgdviZChWvr2oyuxD61JPJ1Q43
Fromat: CountryFlag IP:PORT ResponseTime CountryCode [ISP]

 5.202.47.135:5678 3038ms IR [Hormoz IT & Network Waves Connection Co.]
桂 110.78.149.179:4145 783ms TH [CAT-BB]
 81.12.124.155:5678 6710ms IR [Dade Pardazi Respina PJSC]
梆 203.80.170.81:1080 1019ms KH [CAMBODIAN SINGMENG TELEMEDIA CO., LTD]
 103.170.1.250:5678 3394ms IN [Shourya Broadband]
佛 95.181.46.146:5678 2703ms RU [Goodline.info]
仇 182.93.83.33:1080 2516ms NP [SUBISU D8]
叼 180.178.170.171:5678 1962ms PK [KK Networks Broadband (Pvt.) Limited]
 117.195.85.35:5678 1260ms IN [BSNL Internet]
筐 105.213.126.3:5678 5104ms ZA [MTN SA]
 81.12.124.201:5678 4673ms IR [Dade Pardazi Respina PJSC]
 14.102.61.94:5678 3930ms IN [WORLDPHONE]
 36.91.194.31:5678 4913ms ID [PT. Telekomunikasi Indonesia]
桂 110.78.186.191:4145 883ms TH [CAT-BB]
葛 157.245.147.1:1080 2562ms SG [DigitalOcean, LLC]
ю 118.179.216.78:5678 1294ms BD [Dhakacom Limited]
 185.19.213.41:5678 5396ms ES [Operadora Gredos 3]
 117.255.223.2:5678 2603ms IN [Bharat Sanchar Nigam Ltd]
 190.96.112.154:4153 3644ms AR [Empresa Provincial de Energia de Cordoba]
佛 91.244.112.135:5678 4599ms RU [Wirenet LLC]
别 77.90.73.194:5678 1755ms LT [VT- 2]
佛 46.39.254.33:3629 4038ms RU [Iskratelecom CJSC]
葛 46.251.157.137:4145 2348ms SA [Internet Broadband]
 182.253.243.189:4145 2923ms ID [BIZNET]
桂 183.88.93.71:4145 1561ms TH [Triple T Internet Company Limited]
ю 45.6.198.42:5678 6867ms BR [Nova Rede Telecom]
 66.171.128.129:10801 3780ms CA [T. Grand Networks Inc.]
 117.252.212.26:5678 1356ms IN [BSNL Internet]
桂 41.231.54.69:29690 6106ms TN [Tunisia BackBone AS]
 182.253.92.177:5678 4960ms ID [Biznet Networks]
ю 164.163.180.105:5678 5837ms BR [D. S. da Costa]
 36.91.173.155:5678 1987ms ID [PT Telekomunikasi Indonesia]
叼 112.198.47.74:5678 2511ms PH [Globe Telecom]
ю 191.37.72.118:1080 4403ms BR [CNT Fiber]
ю 179.125.207.87:5678 3982ms BR [Desktop Sigmanet Comunicao Multimdia SA]
ю 77.221.15.68:4153 2286ms BA [TELEMACH BH]
 190.193.97.84:5678 4483ms AR [Telecom Argentina S.A.]
 117.212.194.216:5678 5873ms IN [BSNL Internet]
 201.206.141.102:6969 2474ms CR [Instituto Costarricense de Electricidad y Telecom.]
 117.212.194.86:5678 4956ms IN [BSNL Internet]
火 186.24.50.164:4145 3213ms VE [TELEFONICA VENEZOLANA, C.A.]
 47.243.113.170:25503 1738ms HK [Alibaba (US) Technology Co., Ltd.]
 117.204.253.7:5678 4588ms IN [Bharat Sanchar Nigam Ltd]
吼 192.241.240.98:26630 2677ms US [DigitalOcean, LLC]
仇 182.93.84.94:5678 2191ms NP [Subisu D17]
 203.88.140.106:5678 3936ms IN [YOU Broadband & Cable India Ltd.]
 202.138.242.6:38373 7984ms ID [PT Melvar Lintasnusa]
仇 27.111.27.2:4153 2353ms NP [Mercantile Communications Pvt Ltd]
 159.242.117.76:5678 2462ms GB [Aspire Technology Solutions Ltd]
火 103.159.51.204:1080 7526ms VN [NHANHOASOLUTIONS]
 88.135.45.169:5678 5681ms IR [Atrin Communications and Information Technology Co.]
ю 189.126.51.20:5678 4357ms BR [Mhnet Telecom]
葛 45.77.251.106:50636 5895ms SG [The Constant Company]
吼 78.154.166.197:5678 3801ms UA [Eurotranstelecom]
拆 118.100.130.17:4153 2175ms MY [Tmnet, Telekom Malaysia Bhd.]
火 14.228.93.176:5678 7387ms VN [VNPT]
ю 45.4.58.240:4153 3065ms BR [VN TELECOM PROVEDORES A.R.C EIRELI]
桂 119.42.99.125:4145 4719ms TH [CAT-BB]
 111.95.231.67:4153 980ms ID [Linknet-Fastnet ASN]
ю 45.179.102.231:5678 4141ms BR [ESM NET INFORMATICA]
 47.243.175.80:25503 1212ms HK [Alibaba (US) Technology Co., Ltd.]
佛 95.188.68.21:5678 3430ms RU [Rostelecom networks]
 172.104.90.60:10031 4133ms JP [Linode, LLC]
 188.228.130.229:5678 2686ms IT [popwifi/17]
佛 109.70.187.130:5678 2616ms RU [LTD "Elektrosvyaz"]
 118.137.109.91:5678 1972ms ID [Linknet-Fastnet ASN]
 202.77.114.110:39148 821ms ID [LINKNET]
 117.252.25.122:5678 5169ms IN [BSNL Internet]
 36.80.36.57:30874 5075ms ID [PT. TELKOM INDONESIA]
ю 88.80.119.227:1080 2151ms BG [UltraNET Ltd. C18]
 190.211.115.66:32298 4516ms CR [Cooperativa de Electrificaci贸n Rural de San Carlos R.L. (Coopelesca R.L.)]
吼 46.185.50.18:7777 1880ms UA [Kyivstar UA]
 176.112.73.159:5678 1812ms  []
 186.65.104.49:5678 5345ms  []
ю 45.231.139.223:1080 3285ms BR [TVC Servios de Comunicao Ltda - ME]
吼 95.169.221.238:5678 4806ms US [Ariel-TV AD]
 62.201.212.194:5678 6451ms IQ [IQnet-SU]
 89.185.93.190:4145 2570ms  []
 143.202.139.46:4153 7121ms AR [Infosport SA]
葛 188.121.181.143:5678 3346ms SK [RadioLAN spol. s r.o.]
ю 45.229.172.159:4145 7048ms BR [LINKNET Telecom]
拆 217.16.85.61:5678 2313ms MK [On.net ISP]
 5.128.223.90:3629 6076ms  []
佛 188.133.192.44:5678 3314ms RU [ENTER-NETWORK]
火 103.238.68.209:5678 1953ms VN [Hanoi Telecom Corporation]
 195.162.81.64:4153 3288ms  []
 94.97.22.170:5678 2351ms  []
 181.49.110.162:5678 4029ms  []
拆 38.65.132.199:5678 4987ms MX [Cogent Communications]
佛 46.149.34.206:3629 4067ms RU [Koltushsky Internet Ltd]
ю 186.225.239.198:1080 7015ms BR [Unetvale Servicos e Equipamentos LTDA]
 82.81.18.105:5678 3514ms IL [BEZEQINT]
 78.38.16.172:5678 5361ms IR [orume university]
 103.134.184.134:5430 1823ms ID [PT. PARSAORAN GLOBAL DATATRANS - NAP]
 195.214.222.201:5678 3458ms  []
 187.190.254.239:5678 3169ms  []
ю 177.38.83.198:5678 3418ms BR [ZAP BL TELECOMUNICACOES LTDA]
ю 170.0.60.94:5678 6405ms BR [T F DA SILVA RAMOS TELECOMUNICAES E SISTEMA EPP]
 103.41.32.210:5678 3429ms IN [Juweriyah Networks Private Limited]
 181.191.38.62:5678 4304ms AR [Axesso SRL]
 190.98.189.228:5678 6637ms  []
 185.237.85.122:5678 4302ms  []
叼 200.46.203.42:5678 3457ms PA [Cable Onda]
吼 209.198.43.53:5678 1897ms US [Zoom Telcom, LLC]
吼 50.216.165.34:5678 2002ms US [Comcast Cable Communications]
 170.81.81.154:1080 3348ms  []
拆 201.144.8.114:5678 2922ms MX [Uninet S.A. de C.V]
 80.91.120.61:4145 2871ms AL [Abissnet ISP]
 170.233.196.73:5678 3526ms  []
 89.190.78.10:5678 2497ms CZ [N SYS s.r.o.]
ю 200.167.187.242:5678 3447ms BR [Claro S.A]
ю 213.91.128.99:10801 3151ms BG [BTC-NET Ltd]
 181.169.77.59:5678 3649ms  []
叼 115.147.19.153:5678 1327ms PH [Philippine Long Distance Telephone Co.]
 80.242.38.20:5678 2391ms  []
佛 109.92.203.42:3629 3200ms RS [TELEKOM-SRBIJA]
吼 78.27.180.162:5678 3165ms UA [Domashnya Merezha, LLC]
 91.83.42.1:44550 1689ms HU [Invitech ICT Services Kft.]
吼 195.39.243.198:3629 2958ms UA [Lambda LLC]
 178.217.14.159:5678 2019ms  []
 117.102.101.52:5678 1806ms ID [Biznet Networks]
别 88.118.175.181:5678 2440ms LT [Telia Lietuva, AB]
ю 200.105.169.214:5678 4197ms BO [AXS Bolivia S. A.]
 193.110.79.60:5678 2643ms  []
 212.5.159.2:10801 3393ms  []
 91.123.219.19:5678 3215ms  []
 118.92.50.78:5678 5643ms  []
 88.220.133.32:5678 6254ms  []
吼 97.105.14.13:5678 4381ms US [Spectrum]
叼 188.225.253.2:51372 2347ms PS [fusion services]
佛 91.185.36.48:1080 2673ms RU [ADSL in Baikalsk]
 178.212.98.200:44550 3124ms  []
 36.95.130.213:5678 3251ms ID [PT. Telekomunikasi Indonesia]
ю 179.208.205.157:4153 3304ms BR [Claro S.A.]
ю 103.197.206.176:5678 3086ms BD [Cosmopolitan Communications Limited]
 77.237.82.77:5678 5555ms  []
ю 177.10.128.44:4153 3104ms BR [NDC PROVEDOR DE INTERNET LTDA]
 59.127.185.70:1088 4447ms  []
 36.95.158.25:5678 1691ms ID [PT. Telekomunikasi Indonesia]
 46.228.18.141:5678 4596ms  []
吼 8.21.123.90:5678 6244ms US [Horizon Telcom Inc.]
 186.31.133.170:5678 4155ms CO [ETB - Colombia]
 195.214.222.48:5678 5452ms  []
 96.9.66.136:4153 1097ms  []
筐 41.162.91.202:5678 3262ms ZA [Neotel GAU]
ю 179.108.48.34:41363 3050ms BR [Natel Telecom Ltda. - ME]
 185.71.233.25:5678 2898ms CZ [United Networks SE]
 203.98.96.209:5678 1642ms IN [M/s Ortel Communications  Ltd]
 109.207.112.88:1080 3525ms  []
ю 177.184.249.94:31337 3760ms BR [FLY & LVT]
 41.160.238.106:5678 5619ms  []
ю 177.11.84.11:5678 4308ms BR [Minas Turbo Provedor de Internet]
 89.248.253.3:4153 3309ms CZ [HKFree]
叼 85.128.16.19:1080 3583ms PL [Netia SA]
 190.120.254.52:4145 3248ms  []
叼 122.52.218.2:5678 1432ms PH [Philippine Long Distance Telephone Co.]
吼 208.105.123.219:5678 2041ms US [Spectrum]
 103.95.97.56:5678 2723ms  []
 200.71.49.160:5678 4420ms CO [Telmex Colombia S.A.]
仇 209.124.107.178:5678 3576ms NI [Amnet US LLC]
ю 45.252.52.98:5678 5278ms BD [MD IMDADUL HAQUE]
叼 217.78.61.131:5678 7055ms PS [Paltel-DSL]
 14.248.94.32:5678 4259ms  []
 103.83.109.231:4145 1625ms  []
 84.124.119.110:5678 6401ms  []
 93.78.254.219:5678 5691ms  []
吼 96.35.187.118:5678 5942ms US [Charter Communications]
ю 213.91.182.191:5678 3546ms BG [BTC-NET Ltd.]
 24.203.247.55:5678 3131ms CA [Le Groupe Videotron Ltee]
佛 79.122.179.63:5678 3389ms RU [Enforta]
佛 212.24.45.126:5678 2462ms RU [RU.Avantel-MSK Network]
 200.127.103.100:5678 4716ms  []
筐 169.239.221.89:1080 6243ms ZA [Herotel]
梆 212.112.120.209:3629 2875ms KG [AKNET Ltd.]
 170.249.32.115:5678 6032ms  []
 131.255.124.209:4145 3963ms  []
ю 103.130.172.194:5678 1323ms BD [Cyber Net Communications]
吼 50.251.146.121:5678 2867ms US [Comcast Cable Communications, LLC]
梆 58.97.209.160:5678 1772ms KH [OpenNet ISP Cambodia]
葛 212.55.225.194:5678 5711ms SK [SLOVANET-NETAX]
火 170.246.77.48:5678 4023ms VE [Net Uno, C.A.]
 114.134.187.104:5678 728ms  []
 45.87.90.25:5678 2677ms  []
吼 50.73.45.153:5678 2135ms US [Comcast Cable Communications]
 36.95.154.43:5678 767ms ID [PT. Telekomunikasi Indonesia]
 46.141.30.158:5678 2075ms  []
 203.98.94.45:5678 2277ms AU [SIS Group Pty Ltd]
 200.1.183.140:5678 3177ms  []
吼 47.224.103.215:5678 6072ms US [Charter Communications]
 114.5.129.22:5678 1809ms  []
 190.92.25.125:5678 4347ms HN [Cablecolor S.A.]
 45.116.114.54:5678 1013ms IN [Rainbow Communications India Pvt Ltd]
 87.126.158.10:5678 6158ms  []
 125.17.251.122:5678 1914ms IN [BHARTI]
ю 177.23.38.219:5678 4122ms BR [Roberto Silva Filgueiras]
 186.103.224.226:5678 3553ms  []
 69.5.211.154:5678 2797ms  []
 176.115.172.42:5678 1969ms  []
 88.214.16.218:5678 2035ms  []
别 178.16.44.236:5678 2771ms LT [MIKROVISATA]
ю 170.0.61.252:5678 3954ms BR [T F DA SILVA RAMOS TELECOMUNICAES E SISTEMA EPP]
 188.137.83.165:5678 4417ms  []
 118.97.187.60:4153 7794ms  []
梆 125.133.48.40:5678 5192ms KR [Korea Telecom]
 200.35.187.219:5678 2824ms GT [Navega.com S.A.]
 31.217.221.75:5678 2999ms AT [Peter Rauter GmbH]
吼 50.217.0.137:5678 2974ms US [Comcast Cable Communications, LLC]
 185.252.41.38:5678 4742ms  []
 14.248.80.34:5678 1474ms  []
 64.33.227.17:5678 5701ms  []
吼 176.104.8.207:4153 1718ms UA [UnderNet LLC]
桂 182.52.113.238:4153 1849ms TH [TOT Public Company Limited]
 117.241.169.121:5678 2510ms  []
 185.142.127.24:5678 2729ms  []
 83.171.98.69:5678 1759ms  []
叼 192.135.110.170:5678 3273ms PR [Aeronet Wireless]
 88.149.228.115:5678 2338ms IT [NGI]
吼 50.81.98.220:5678 5103ms US [Mediacom Communications]
 103.101.194.36:5430 5005ms ID [ALIFTAMA]
ю 177.84.152.40:5678 3578ms BR [Sempre Telecomunicacoes Ltda]
 119.235.50.5:4145 2427ms IN [VAINAVI INDUSTIES LTD, INTERNET SERVICE PROVIDER, INDIA]
吼 70.60.96.154:5678 5413ms US [Spectrum]
 80.91.120.38:5678 3375ms AL [Abissnet ISP]
别 78.61.27.207:5678 2308ms LT [Telia Lietuva]
吼 136.25.2.93:5678 4697ms US [Webpass Inc.]
 84.36.228.135:5678 2083ms EG [Etisalat]
 194.30.1.194:5678 4129ms ES [Sarenet As3262]
 103.47.170.131:5678 1309ms IN [Gigantic Infotel Pvt LTd]
桂 27.254.113.66:5678 1838ms TH [MicrothaiPlus2]
 175.111.180.35:5678 3215ms  []
 202.149.74.2:5678 1981ms ID [Satata Neka Tama]
 103.101.194.35:5430 428ms ID [ALIFTAMA]
 190.147.199.61:5678 5962ms CO [Telmex Colombia S.A.]
叼 80.52.223.98:5678 2986ms PL [Orange Polska Spolka Akcyjna]
火 14.165.196.235:5678 2537ms VN [VNPT-VNNIC]
 182.76.42.10:5678 4295ms IN [Bharti Airtel]
 200.0.247.242:5678 5270ms AR [Telefonica de Argentina]
 103.159.243.114:5678 5349ms IN [Parasar]
 103.29.140.65:5678 3058ms HK [NTDKL]
 131.161.147.114:5678 7128ms  []
吼 178.210.131.61:5678 4051ms UA [TELCOM]
叼 79.133.202.7:1088 2824ms PL [eTOP Sp. z o.o.]
 212.96.167.109:5678 2107ms  []
 61.1.110.169:5678 2904ms IN [Bharat Sanchar Nigam Ltd]
 103.106.219.14:5678 2814ms ID [Artha Lintas Data Mandiri]
金 46.19.231.50:5678 1609ms XK [Kujtesa Network]
 163.53.84.216:5678 2111ms IN [ANINETWORK]
 103.83.9.102:5678 4226ms IN [Devdarpan Broadband Pvt. Ltd.]
 1.186.213.67:5678 2415ms IN [D-VoiS Broadband Private Limited]
 103.66.198.50:5678 2873ms ID [PT. Mora Telematika Indonesia]
 186.179.68.195:5678 5749ms  []
 102.221.228.97:5678 5281ms GH [Tizeti Network Ghana Limited]
ю 130.185.213.146:5678 6114ms BG [Optinet Ltd]
 182.16.166.166:5678 5012ms ID [SOLUSINET]
桂 185.252.41.37:5678 2653ms TR [adnet internet ve iletisim hizmetleri tic ltd sti]
 125.168.200.121:5678 1695ms AU [Vocus PTY LTD]
 70.62.51.242:5678 2344ms  []
 195.28.14.51:1080 4734ms  []
桂 93.184.151.48:5678 2402ms TR [FIXNET Telekomunikasyon Limited Sirketi]
 96.75.243.153:5678 3147ms  []
吼 159.224.187.170:5678 3882ms UA [Triolan]
 103.157.116.202:5678 5117ms  []
拆 164.40.250.71:5678 3425ms MK [NEOTEL DOO export-import Skopje]
 185.64.220.104:4153 3783ms CZ [Tlapnet - Pohodanet]
拆 165.90.89.6:5678 3238ms MZ [Moztel LDA]
佛 217.112.18.114:4153 2453ms RU [PJSC Moscow city telephone network]
 93.182.76.244:5678 3428ms  []
桂 213.74.58.60:5678 3459ms TR [Tellcom Iletisim Hizmetleri A.S.]
 195.20.194.77:5678 4615ms  []
佛 46.52.164.84:5678 3174ms RU [Enforta-VVK]
吼 194.28.91.10:5678 3409ms UA [Agronet public network]
 190.252.104.74:5678 6758ms CO [Telebucaramanga S.a. E.S.P.]
 122.54.20.50:5678 4429ms  []
 103.151.219.150:1080 1096ms  []
 219.83.84.56:5678 2990ms ID [Retail Customer Of IndosatM2]
叼 37.130.41.172:5678 3287ms PL ["InterKAM" S.C]
 103.36.11.122:4145 1000ms  []
ю 177.5.231.18:5678 3516ms BR [Brasil Telecom S/A - Filial Distrito Federal]
ю 91.191.62.27:5678 7195ms BA [DASTO semtel d.o.o.]
 90.188.49.89:5678 2232ms  []
吼 94.158.53.197:5678 2483ms UZ [Iplus LLC]
ю 187.75.159.195:3629 3993ms BR [Vivo]
 124.107.46.53:5678 1094ms  []
 82.137.217.192:5678 3250ms  []
 217.66.223.18:5678 5437ms  []
 103.41.173.103:5678 3034ms  []
 103.144.181.122:44550 1263ms ID [PT. Indonesia Comnets Plus]
 195.133.222.66:5678 3821ms IQ [HORIZON-BG]
 217.219.207.227:5678 4530ms  []
梆 198.89.91.42:5678 3869ms KZ [Kar-Tel LLC]
梆 85.113.20.234:5678 5991ms KG [OJSC Kyrgyztelecom]
 200.41.176.245:5678 4562ms AR [Telefonica de Argentina]
 103.40.64.91:5678 3056ms IN [Waves NET Solutions]
叼 199.91.78.254:5678 2308ms PR [Aeronet Wireless]
ю 187.58.135.42:5678 4232ms BR [Vivo]
 103.151.33.231:4145 3262ms ID [KITANET]
ю 177.11.84.53:5678 5983ms BR [Minas Turbo Provedor de Internet]
ю 191.36.153.60:5678 4909ms BR [VIPTURBO COMRCIO & SERVIOS DE INFORMTICA LTDA]
叼 85.89.184.87:5678 3310ms PL [TOYA Sp. z o.o.]
ю 201.32.173.218:5678 4493ms BR [Telemar Norte Leste S.A.]
吼 92.38.40.128:5678 3869ms UA [PE Bedniy Alexander Sergeevich]
ю 128.201.176.0:5678 5002ms BR [Data Info Comercio e Servico Ltda.]
吼 109.254.4.142:5678 2643ms UA [Donbass Electronic Communications Ltd.]
叼 45.138.153.235:5678 2436ms PL [ITV MEDIA Sp. z o.o.]
叼 80.54.62.254:5678 3102ms PL [Orange Polska Spolka Akcyjna]
 200.44.171.251:5678 3228ms  []
 207.210.47.34:5678 4032ms CA [Rogers Communications]
 82.193.114.51:5678 3083ms  []
 207.210.47.61:5678 5481ms CA [Rogers Communications]
 41.38.10.139:5678 1731ms  []
 37.238.169.18:5678 2683ms IQ [EarthLink Ltd. Communications&]
 103.100.175.108:5678 2876ms  []
 103.109.80.238:5678 1592ms IN [Easy Solutions Internet Services Pvt Ltd]
 91.72.180.6:5678 1451ms AE [Emirates Integrated Telecommunications Company PJSC]
 94.187.63.148:5678 5637ms  []
 49.128.184.38:5678 3721ms ID [PT Poros Network Nusantara]
拆 190.9.54.24:5678 2435ms MX [Konecta de Mexico, S. de R.L. de C.V.]
 217.9.21.101:5678 3278ms  []
 181.115.144.142:5678 4481ms  []
佛 178.74.70.94:5678 3660ms RU [Omskie kabelnye seti Ltd]
拆 115.164.146.10:5678 1818ms MY [DiGi Telecommunications Sdn Bhd., Digi Internet Exchange]
 103.143.195.189:5678 822ms ID [TRINITY]
叼 195.205.226.146:5678 4334ms PL [Orange Polska Spolka Akcyjna]
 195.230.141.73:5678 3233ms  []
ю 187.84.184.1:4153 6261ms BR [Obti Operadora]
 103.52.252.48:5678 1376ms IN [WORLDVIEWKOLKATA]
ю 187.44.1.248:5678 4524ms BR [Rede Brasileira de Comunicacao S/A]
筐 102.66.136.77:5678 6978ms ZA [HERO TELECOMS (PTY) LTD]
 161.49.222.36:5678 1809ms  []
ю 143.202.129.170:5678 3531ms BR [Unilink Telecom]
拆 64.119.31.178:5678 4657ms MN [MCS Com Co Ltd]
葛 154.118.243.6:5678 7934ms SO [Somali Optical Networks]
ю 103.134.40.89:5678 2607ms BD [Janani Technology]
ю 189.51.19.248:5678 5951ms BR [Sempre Telecomunicacoes Ltda]
 94.139.170.82:33848 7271ms IR [Farabord Dadeh Haye Iranian Co.]
 139.192.120.182:5678 1917ms ID [PT. First Media, Tbk]
叼 78.28.59.124:5678 3353ms PL [Petrus Spolka z ograniczona odpowiedzialnoscia]
佛 109.72.49.140:5678 3361ms RS [AVCOM-CS]
 117.212.90.236:5678 2741ms  []
 203.169.27.149:5678 2049ms  []
叼 91.222.147.56:5678 6231ms PL ["GREFNET" Miroslaw Grefkowicz]
 178.168.208.4:5678 2120ms  []
 82.129.40.224:5678 3983ms ES [Wifi Intersur S.L]
 186.190.228.83:4153 3615ms CO [TV AZTECA SUCURSAL COLOMBIA]
 31.166.210.8:5678 2306ms  []
筐 102.165.208.213:5678 4173ms ZA [Cipherwave]
 80.23.253.250:5678 2910ms IT [INTERBUSINESS]
 203.112.134.74:5678 2175ms  []
 165.0.15.151:5678 4128ms  []
吼 77.52.185.49:5678 1956ms UA [PrJSC "VF UKRAINE"]
佛 46.17.252.138:5678 2400ms RU [VDS-Telecom LLC.]
 45.235.122.195:5678 6477ms  []
吼 109.206.39.178:5678 1805ms UA [PRIVATE JOINT STOCK COMPANY "DATAGROUP"]
别 141.138.182.195:5678 6524ms LB [Moscanet SAL]
 146.120.160.148:5678 2073ms  []
ю 45.227.151.70:5678 4498ms BR [MS TELECOM LTDA ME]
ю 177.12.87.201:5678 6481ms BR [SCJ Info Com. Serv. de Informatica Ltda]
 103.119.55.226:5678 2310ms ID [PT. Eka Mas Republik]
 45.71.37.1:5678 2849ms  []
 45.71.100.92:5678 4271ms  []
 130.193.39.79:5678 3269ms  []
 212.125.4.239:5678 4988ms  []
 103.161.130.6:5678 1675ms ID [PT Jaringan Internet Nusantara]
 217.18.239.114:5678 3104ms  []
 198.89.91.90:5678 5813ms  []
 37.157.214.229:5678 6817ms AM [Ucom CJSC]
ю 189.44.180.131:5678 7606ms BR [Vivo]
 91.144.22.21:5678 7003ms  []
筐 41.169.102.233:5678 4329ms ZA [Liquid Telecommunications South Africa (Pty) Ltd]
吼 136.143.144.188:5678 1745ms US [LocalTel Communications]
ю 189.49.172.156:5678 6198ms BR [Telemar Norte Leste S.A.]
 103.77.157.209:4145 2939ms  []
 31.186.53.218:5678 3724ms  []
 85.28.31.68:5678 1992ms  []
ю 186.65.106.86:5678 4180ms BR [Bahiadados Telecom Ltda.]
 186.138.200.226:4145 6188ms  []
 103.155.198.142:1080 720ms ID [PT Lintas Jaringan Nusantara]
ю 212.50.19.150:4153 3365ms BG [Spectrum NET]
 5.202.103.42:5678 5894ms IR [Pishgaman Toseeh Ertebatat Company (Private Joint Stock)]
 78.38.71.170:5678 2276ms IR [Telecommunication Company of Semnan]
 8.26.75.100:5678 4258ms  []
 185.59.67.131:5678 2943ms ES [LCR]
拆 196.11.84.194:5678 7439ms MW [Simbanet Malawi Limited]
吼 146.120.160.198:5678 3089ms UA [Dianet Ltd.]
 178.22.123.85:1080 2953ms IR [Asiatech Data Transmission company]
 5.202.159.63:5678 2997ms IR [PTS-Network]
吼 136.143.150.197:5678 3265ms US [LocalTel Communications]
 45.120.114.192:5678 5367ms  []
 5.104.189.32:5678 1909ms  []
佛 5.130.72.170:5678 2741ms RU [Novotelecom Ltd.]
 46.30.67.253:5678 2639ms  []
 213.240.25.98:5678 7909ms  []
 95.30.220.14:5678 2667ms  []
桂 213.14.49.133:5678 2891ms TR [Tellcom Iletisim Hizmetleri A.S.]
 222.252.35.28:5678 2496ms  []
筐 168.253.192.58:5678 5829ms ZA [VOffice Solutions]
ю 186.211.185.242:5678 5072ms BR [BR.Digital Provider]
ю 213.226.16.46:51372 3284ms BG [Mobiltel EAD]
拆 92.114.157.250:5678 3564ms MD [JSC MOLDTELECOM SA]
 179.220.12.26:5678 3486ms  []
吼 38.134.10.82:5678 2780ms US [VGI Technology]
 81.91.157.134:5678 2594ms IR [Farabord Dadeh Haye Iranian Co.]
 184.105.50.26:5678 3094ms  []
 37.159.144.34:5678 1922ms  []
别 89.249.210.123:5678 5028ms LB [Moscanet SAL]
 69.71.6.83:5678 4258ms  []
ю 113.11.60.231:5678 2062ms BD [BDCOM Online Limited]
 95.45.254.204:5678 3589ms IE [Eircom Limited]
 178.249.218.34:5678 7128ms  []
 78.118.142.244:5678 3039ms  []
 38.113.171.108:5678 2290ms CA [Cogent Communications]
梆 185.99.125.201:5678 3859ms KZ [Gologramma LLP]
 170.238.180.21:4145 3314ms  []
ю 213.91.87.157:5678 3282ms BA [ELTA KABEL d.o.o.]
 208.180.199.147:5678 2148ms  []
 93.115.144.116:5678 2748ms IR [Asiatech Data Transmission company]
 189.36.201.230:5678 4862ms  []
 62.175.182.156:5678 4811ms  []
 111.221.54.49:5678 1922ms  []
 103.52.252.18:5678 1399ms  []
 201.204.47.66:5678 3486ms CR [Instituto Costarricense de Electricidad y Telecom.]
叼 62.133.140.225:5678 2039ms PL [Spoldzielnia Telekomunikacyjna OST]
ю 177.141.151.10:5678 6593ms BR [Claro S.A.]
 202.148.3.68:4153 3347ms ID [PT. Core Mediatech]
桂 1.20.95.95:5678 2492ms TH [TOT-MOBILE]
 130.255.92.133:5678 5065ms  []
筐 160.226.223.40:5678 6079ms ZA [Iclix (PTY) Ltd]
 95.170.203.66:5678 3641ms IQ [Newroz Telecom - 2nd]
ю 177.55.249.213:5678 3407ms BR [VAS Freitas Servicos de Internet Ltda]
 177.155.215.85:5678 4415ms  []
 203.217.170.130:1080 1434ms  []
 217.113.17.249:5678 3486ms AM [GNC]
 51.254.162.207:5678 2990ms DE [OVH SAS]
 181.205.24.234:5678 2914ms CO [EPM Telecomunicaciones S.A. E.S.P.]
 200.37.200.185:5678 6386ms  []
吼 217.73.95.3:5678 2457ms UA [Infomir JSC]
ю 85.187.224.142:4153 1638ms BG [Technolux Ltd]
 189.82.99.37:4145 3280ms  []
 43.243.141.60:3629 1891ms ID [CEPATNET]
ю 62.176.126.75:19887 1830ms BG [Bulgarian Telecommunications Company Plc.]
ю 138.117.62.118:5678 3343ms BR [Multiplic Comunicacao E Tecnologia Ltda -ME]
ю 177.10.84.192:4145 4503ms BR [VIACOM INFORMTICA LTDA]
 189.121.227.30:5678 5201ms  []
 183.177.127.42:5678 3307ms IN [51/A RACHNA MIDAS GOKULPETH]
佛 82.151.124.36:5678 2049ms RU [PJSC Rostelecom]
 200.69.77.219:5678 2667ms CO [TV AZTECA SUCURSAL COLOMBIA]
 186.228.97.42:5678 7211ms  []
 95.67.127.70:5678 4011ms  []
 175.29.172.150:5678 5033ms  []
 103.112.163.142:1080 1082ms ID [24AS]
 181.39.45.242:5678 5767ms EC [Telconet S.A]
 46.98.196.19:5678 4862ms  []
 94.183.108.251:5678 3796ms IR [SHATEL Network]
 109.73.180.188:5678 2261ms IT [ECROM-MAIN]
 103.23.34.191:4145 1832ms  []
 201.204.47.67:5678 3362ms  []
 202.129.187.235:5678 803ms ID [PT Media Akses Global Indo]
 217.219.179.123:4153 5030ms IR [DCI]
 200.116.198.148:36781 4404ms CO [EPM Telecomunicaciones S.A. E.S.P]
ю 190.109.72.230:33633 3574ms BR [RG.COM - INFORMATICA & COMUNICACAO LTDA - ME]
 190.2.210.123:5678 3614ms CO [TV AZTECA SUCURSAL COLOMBIA]
 103.224.54.233:31433 2292ms IN [R TECHNOLOGIES]
 37.98.231.236:5678 7670ms IQ [ScopeSky for communications, internet and technology services LLC]
ю 189.89.142.30:4145 4450ms BR [ITS TELECOMUNICACOES LTDA]
梆 124.248.184.103:5678 4927ms KH [COGETEL Co., Ltd]
 181.204.71.77:5678 3011ms CO [Colombia M贸vil]
 103.151.177.249:5678 1415ms ID [PT JASAMARGA TOLLROAD OPERATOR]
 203.192.233.26:5678 1279ms IN [announced In2cable MIDC Mumbai]
ю 123.200.18.130:5678 5493ms BD [Link3 Technologies Limited]
ю 202.79.20.67:5678 1030ms BD [ConnectBD Ltd.]
 186.148.200.108:8291 6737ms AR [Cooperativa de Electricidad, Obras y Servicios P煤blicos Suipacha JJ Almeira Lt]
叼 190.93.176.21:5678 3290ms PY [Multi Link S.A.]
 103.251.179.234:5678 5587ms AF [Aani af]
ю 103.109.59.113:1080 4021ms BD [Skynet Chowmuhani]
桂 202.29.238.14:5678 4110ms TH [THAINET]
 178.115.234.58:5678 4354ms AT [customers with static IP]
ю 170.84.83.175:5678 6173ms BR [LagosNet Internet Banda Larga Ltda]
 103.224.54.225:31433 5870ms IN [R TECHNOLOGIES]
 45.123.1.1:5678 4518ms IN [Blue Lotus Support Services Pvt Ltd]
 178.252.189.90:5678 5063ms IR [GOSTARESH-E-ERTEBATAT-E MABNA COMPANY (Private Joint Stock)]
 95.107.168.20:5678 3035ms AL ["Albanian Satellite Communications" sh.p.k.]
 123.231.175.21:5678 4905ms ID [Network Access Provider and Internet Service Provider]
 103.94.67.94:5678 2605ms IN [Mass Computer]
别 154.73.52.22:5678 1570ms LY [Aljeel Aljadeed For Technology]
ю 177.36.185.182:5678 3850ms BR [GGNET TELECOMUNICAES LTDA]
吼 91.222.113.175:5678 2120ms UA [LLC LANTRACE]
 103.16.223.197:5430 4726ms ID [Lembaga Penerbangan dan Antariksa Nasional]
仇 155.93.96.54:5678 2465ms NG [Vodacom Business Nigeria]
 201.182.242.31:5678 5158ms EC [Gualan Japon Luis Joaquin]
 45.94.72.73:5678 7152ms IE [Model Telecom Ltd]
ю 187.72.167.89:5678 5131ms BR [ALGAR TELECOM S/A]
 116.197.131.19:9999 7886ms ID [FIBERNET]
 103.241.24.195:5678 535ms ID [APIK Media Networks]
 181.129.140.20:5678 2936ms CO [EPM Telecomunicaciones S.A. E.S.P.]
 185.184.197.101:5678 4515ms IQ [Allay Nawroz Telecom Company for Communication/Ltd.]
拆 165.90.90.239:5678 4581ms MZ [Moztel LDA]
拆 187.177.30.154:4145 2108ms MX [Axtel, S.A.B. de C.V.]
 103.140.189.94:5678 938ms ID [TRANSNET]
 91.187.70.80:5678 2735ms AD [Andorra Telecom SAU]
 43.225.65.246:5430 2338ms ID [HSPNET]
 200.125.171.117:5678 2729ms DO [WIRELESS MULTI SERVICE VARGAS CABRERA, S. R. L]
叼 124.106.223.151:5678 2628ms PH [Philippine Long Distance Telephone Co.]
ю 170.84.83.174:5678 7232ms BR [LagosNet Internet Banda Larga Ltda]
ю 103.237.77.156:5678 834ms BD [COMBINEDSOFT]
吼 46.98.203.82:5678 2540ms UA [ISP "Fregat"]
吼 46.98.198.53:5678 5637ms UA [ISP "Fregat"]
仇 202.166.207.55:4153 1705ms NP [WorldLink Communications]
吼 46.98.193.41:5678 2194ms UA [ISP "Fregat"]
 200.116.198.150:5678 4096ms CO [EPM Telecomunicaciones S.A. E.S.P]
筐 41.175.21.246:5678 4649ms ZM [Liquid Telecommunications Ltd]
 103.101.3.166:5678 1019ms ID [Netrouting Inc]
 117.196.237.177:5678 5572ms IN [Bharat Sanchar Nigam Ltd]
ю 143.202.0.189:5678 4736ms BR [Wavetech Internet]
 36.90.170.194:5678 2895ms ID [PT. Telekomunikasi Indonesia]
 27.121.84.162:5678 1665ms ID [dashnet - PT Sumidhaz Permata Bunda]
葛 102.128.130.70:1080 3495ms SO [SOMTEL INTERNATIONAL Ltd]
佛 79.175.107.169:1080 6137ms RS [Orion Telekom ISP IP Network]
ю 27.54.150.186:5678 2470ms BD [X-press Technologies Limited]
ю 103.120.38.19:5678 2092ms BD [Md. Yusuf Ahmed]
佛 79.175.109.202:1080 2039ms RS [Orion Telekom ISP IP Network]
ю 103.117.108.18:36932 2233ms BD [I Link Internet Service (I.T)]
 182.253.232.16:5678 1909ms ID [BIZNET]
 94.183.212.56:5678 4201ms IR [SHATEL DSL Network]
佛 188.170.237.214:3629 5132ms RU [PJSC MegaFon]
 46.167.196.229:5678 6157ms CZ [UPC Czech]
筐 102.66.136.65:5678 7518ms ZA [HERO TELECOMS (PTY) LTD]
 103.134.220.17:5678 3732ms ID [PT GLOBAL MEDIA PRATAMA SOLUSINDO]
 81.218.45.207:4145 2352ms IL [BEZEQINT-CABLES]
ю 189.124.138.137:5678 7218ms BR [Cabo Servicos De Telecomunicacoes Ltda]
佛 46.240.132.22:4153 3104ms RS [Serbia BroadBand-Srpske Kablovske mreze d.o.o.]
 190.109.72.251:33633 3470ms  []
 117.20.58.186:5678 2035ms ID [CITRA]
 103.10.97.74:4153 3601ms ID [Neuviz Net]
 114.7.194.138:4145 1297ms  []
 103.117.108.46:36932 2217ms  []
 168.181.121.154:57010 5627ms HN [Enred S.de.R.L]
 191.7.4.27:5678 6992ms  []
 103.123.86.53:5678 4116ms  []
 79.143.22.208:5678 2775ms  []
拆 94.102.225.110:5678 6366ms ME [Telenor d.o.o. Podgorica]
 163.53.186.250:5678 3569ms ID [ICONPLN]
 116.212.142.188:5678 2914ms  []
 93.171.224.61:4153 4043ms  []
 36.67.205.203:5678 1925ms ID [PT. Telekomunikasi Indonesia]
 103.132.3.254:5678 3591ms IN [Typhoon Communication Pvt. Ltd]
 182.23.81.220:5678 5043ms  []
 36.71.150.135:5678 5160ms ID [PT. Telekomunikasi Indonesia]
ю 103.144.43.50:10801 2072ms BD [Friends Cable]
 185.134.99.66:5678 4435ms IR [Yaghoot Rayaneh Saveh Cooperative Co.]
 117.196.232.49:5678 3972ms IN [Bharat Sanchar Nigam Ltd]
叼 85.114.102.86:5678 3259ms PS [fusion services]
 79.127.35.243:5678 5199ms IR [Asiatech Data Transmission company]
 201.222.29.9:5678 3504ms  []
 163.53.210.33:5678 1301ms IN [GTPL Shiv Network Pvt Ltd]
ю 177.53.119.146:5678 3400ms BR [Estreitonet Ltda]
 200.27.110.30:57702 6243ms CL [Telmex Chile Internet S.A.]
 45.224.153.179:5678 2900ms EC [Nedetel S.A]
ю 203.76.124.138:5678 2040ms BD [Link3 Technologies Limited]
 213.178.223.41:5678 2338ms  []
叼 200.85.52.170:5678 4427ms PY [Telecel S.A.]
 186.64.81.7:5678 3842ms AR [Nodosud S.A]
 202.93.228.13:4153 2454ms ID [PT. HIPERNET INDODATA]
 110.172.141.178:5678 2955ms IN [worldphone]
 177.128.139.252:5678 5117ms  []
别 89.201.5.90:5678 2036ms LV [BALTKOM]
 185.58.17.233:5678 6439ms IE [Model Telecom Ltd]
 178.212.196.157:5678 1859ms  []
 103.161.73.242:5678 7840ms ID [BIGNET]
 36.91.177.197:5678 2563ms  []
 77.104.81.88:5678 2469ms IR [Respina]
仇 202.166.217.8:5678 1461ms NP [WorldLink Communications]
ю 103.159.254.9:5678 2473ms BD [Shahana Begum]
 210.210.186.254:4153 1643ms  []
 190.14.229.242:5678 2863ms CO [Media Commerce Partners S.A]
 88.135.43.166:5678 2827ms IR [Atrin Communications and Information Technology Co.]
 186.211.195.50:5678 5230ms  []
 190.119.165.227:5678 4619ms  []
ю 103.150.48.57:5678 1139ms BD [United Enterprises & CO Ltd.]
 185.229.122.27:3629 2218ms  []
 125.27.179.157:5678 2004ms  []
 200.25.254.141:5678 3685ms CO [Andinet ON Line]
 88.135.40.180:5678 4123ms IR [Atrin Communications and Information Technology Co.]
 175.158.41.46:5678 2708ms  []
ю 103.146.55.76:5678 1075ms BD [Md. Sohel]
 203.202.255.153:5678 7953ms  []
 5.200.84.164:5678 2188ms  []
 109.237.0.151:5678 2917ms  []
吼 93.171.224.47:4153 5843ms UA [PE TV and Radio Company Kentavr-TV]
叼 46.174.239.180:5678 1801ms PL [Interkam Szczepanik Spolka Komandytowa]
ю 179.189.254.14:5678 4045ms BR [WorldNet Telecom Comercio e Servios de Telecomuni]
叼 217.66.237.241:5678 5490ms PS [Paltel-DSL]
 179.189.204.181:5678 3983ms  []
叼 85.114.100.110:5678 3793ms PS [fusion services]
 177.36.185.181:5678 6143ms  []
 79.106.224.206:5678 2425ms  []
ю 196.2.15.106:5678 5497ms BI [CBINET, Bujumbura, Burundi.]
 177.36.185.180:5678 6202ms  []
 116.68.251.114:5430 1807ms ID [PT. Cross Network Indonesia]
 202.137.26.2:4145 4639ms  []
 190.124.16.81:5678 6176ms HN [METRONET]
 103.108.243.238:5678 546ms ID [PT.PERSADA KARYA LESTARI MANDIRI]
 45.221.73.46:5678 4793ms  []
ю 168.232.122.35:5678 4316ms BR [Conexao - Telecom. E Internet Ltda]
 103.105.53.196:5678 1025ms ID [PT. Mega Artha Lintas Data]
ю 187.86.153.254:30660 6892ms BR [VETORIALNET INF. E SERVIOS DE INTERNET LTDA]
 58.187.6.36:5678 1819ms  []
 103.91.52.244:5678 4504ms  []
 112.78.134.218:5678 989ms  []
 103.169.70.21:5678 2024ms  []
 202.150.152.122:8291 2880ms  []
ю 182.160.113.227:5678 3091ms BD [Aamra Networks Limited]
 103.142.164.44:4145 2611ms IN [All Time Tele Infra Pvt Ltd]
 117.197.47.33:5678 2393ms IN [Bharat Sanchar Nigam Ltd]
 45.248.26.33:5678 3326ms IN [vardha info tech private limited]
ю 187.102.31.39:35618 4422ms BR [Guanhaes Internet LTDA-ME]
 117.252.19.166:5678 4510ms IN [BSNL Internet]
 103.78.215.58:5678 1602ms ID [MORATELINDO]
 117.212.194.152:5678 3544ms IN [BSNL Internet]
桂 85.105.87.11:59341 1795ms TR [TurkTelecom]
 103.124.147.58:5678 601ms  []
 103.143.24.59:5678 876ms  []
 45.112.127.106:4145 922ms ID [FIBERNET]
 103.239.165.29:5678 3561ms ID [Dinas Perhubungan Kominfo Provinsi Sumatera Selatan]
 117.103.69.162:5678 1676ms ID [NARATEL]
ю 177.85.205.173:3629 5117ms BR [S. A. da Silva Junior]
 86.49.49.30:5678 3244ms CZ [Vodafone Czech Republic a.s.]
 202.58.199.236:5678 4052ms ID [Internet Madju Abad Millenindo, PT]
 110.232.255.157:5678 3288ms IN [509 Jaina tower 1st District Center]
 169.239.188.61:5678 3790ms  []
 109.127.82.115:5678 3442ms IQ [Newroz Telecom]
吼 89.21.77.145:5678 5226ms UA [TOV BF Express Ltd]
ю 170.239.108.254:5678 6016ms BR [Rede Unicon]
 202.150.152.123:8291 1886ms  []
 212.200.161.241:5678 2244ms  []
梆 197.232.2.18:5678 5353ms KE [Jamii Telecommunications Limited]
 50.84.203.108:5678 3056ms  []
 103.232.228.169:3306 2075ms  []
 123.200.24.174:5678 6588ms  []
 193.84.184.25:5678 1635ms  []
 103.109.108.129:5678 4568ms IN [Blue Lotus Support Services Pvt Ltd]
ю 179.48.136.5:3629 4231ms BR [CONVEXPERT BRASIL SOLUES EM TECNOLOGIA LTDA]
 212.112.113.108:5678 3602ms  []
 190.235.165.117:5678 3353ms  []
ю 170.82.199.102:5678 7193ms BR [Renovare Telecom]
ю 103.121.62.14:5678 1988ms BD [North Bengal Online]
 103.85.103.25:5678 1675ms  []
 103.124.137.251:1080 1349ms  []
 93.87.39.10:5678 4156ms  []
 128.201.157.125:5678 3871ms  []
 121.101.131.75:5678 1070ms ID [TERABIT]
 168.232.20.39:5678 4019ms  []
桂 122.154.100.89:5678 749ms TH [CAT Telecom Public Company Limited]
 31.30.113.82:5678 4686ms CZ [Vodafone Czech Republic a.s.]
桂 210.61.91.72:5678 2296ms TW [Chunghwa Telecom Co., Ltd.]
ю 201.48.29.105:5678 6651ms BR [ALGAR TELECOM S/A]
 143.202.136.49:5678 4235ms AR [Infosport SA]
 103.239.165.28:5678 1384ms ID [Dinas Perhubungan Kominfo Provinsi Sumatera Selatan]
 45.130.96.163:5678 4491ms  []
拆 151.236.254.20:5678 2036ms MK [Net - Infrastructure]
 222.165.215.117:52667 1664ms  []
 103.199.144.97:5678 2199ms IN [Blue Lotus Support Services Pvt Ltd]
仇 102.134.17.14:5678 4566ms NG [WIOCC]
 149.54.7.42:5678 5301ms AF [Government Communications Network]
ю 27.147.144.124:4153 5418ms BD [Link3 Technologies Limited]
叼 89.186.1.172:5678 2263ms PL [Artur Sienkiewicz]
 193.162.105.112:5678 2160ms  []
 117.212.192.86:5678 2511ms  []
ю 103.195.3.97:5678 2305ms BD [Geotel Bangladesh IT Ltd]
 109.168.35.230:5678 1671ms IT [Irideos S.P.A.]
 182.75.132.106:5678 3005ms IN [Bharti Airtel]
 103.159.243.65:5678 5477ms  []
ю 103.220.206.53:5678 1067ms BD [KS Network]
 41.188.61.238:5678 4427ms  []
 103.85.103.9:5678 3681ms IN [Vedant Broadband]
 202.129.187.226:5678 492ms ID [PT Media Akses Global Indo]
 82.137.250.18:5678 2489ms  []
 188.95.20.138:5678 3646ms IT [Linkem IR WiMAX Network]
火 123.24.206.255:5678 3158ms VN [VietNam Post and Telecom Corporation]
 196.202.210.109:5678 3530ms  []
ю 177.154.18.2:5678 6601ms BR [Wave Telecom Ltda.]
 43.245.95.226:3306 2082ms  []
吼 50.84.203.105:5678 3542ms US [Spectrum]
佛 78.37.99.51:4153 4793ms RU [PJSC Rostelecom]
 185.138.123.178:5678 3610ms IQ [Horizon ISP3]
吼 50.84.203.99:5678 3753ms US [Spectrum]
叼 45.130.97.238:5678 3197ms PS [SpeedClick for Information Technology and Communication Ltd]
 103.144.188.9:5678 2893ms  []
 185.56.180.14:5678 2776ms ES [GARTEL]
 138.94.140.86:5678 2681ms  []
仇 185.134.216.221:5678 1648ms NL [Comsave B.V.]
仇 185.134.216.217:5678 2721ms NL [Comsave B.V.]
 183.81.157.65:5678 3783ms ID [Internet Service Provider]
 121.101.131.72:5678 2010ms ID [TERABIT]
 154.66.211.161:5678 5140ms  []
 95.104.112.234:5678 4147ms  []
 210.61.91.69:5678 2960ms  []
 114.57.39.226:5678 7865ms  []
 103.102.58.246:5678 2350ms IN [Navkar Netsol Private Ltd]
 27.147.164.86:5678 1381ms  []
ю 115.127.121.198:5678 2430ms BD [BRACNet Limited]
 43.246.203.97:5678 2636ms  []
ю 138.0.74.234:5678 6457ms BR [Ultra Telecom]
 66.96.252.123:5678 1233ms ID [PT. SMARTFREN TELECOM]
ю 114.31.23.34:5678 4119ms BD [BDCOM Online Limited]
别 202.137.141.212:5678 2797ms LA [Lao Telecommunication Co Ltd]
 63.209.154.222:5678 2676ms DO [Trilogy Dominicana, S.A.]
 103.165.22.74:5678 3794ms IN [Indtel Infra Private Limited]
筐 196.32.236.146:5678 5893ms ZA [Amobia Communications]
 175.101.18.25:5678 2957ms  []
 92.241.87.14:5678 3153ms  []
 92.255.236.78:3629 3266ms  []
 5.180.100.24:5678 6336ms  []
 80.80.164.164:10801 2965ms  []
梆 5.34.74.218:5678 2722ms KZ [2Day Telecom LLP]
 188.0.117.41:5678 3262ms  []
 88.147.149.247:5678 3473ms  []
 103.148.233.218:5678 1044ms ID [PT. Fiber Networks Indonesia]
 134.19.253.151:5678 4103ms  []
ю 192.140.30.101:5678 6050ms BR [Walter Elias Villa]
 212.72.133.250:5678 3553ms  []
 111.90.175.12:5678 3392ms  []
 202.50.53.32:5678 2091ms  []
 103.14.232.46:5678 1311ms IN [Intech Online Pvt Ltd]
 94.180.249.187:59723 6813ms  []
ю 170.80.33.103:5678 3899ms BR [Giga NET Telecomunicacoes Eireli - ME]
叼 178.19.176.24:5678 5039ms PL [TB Telecom Sp. z o. o.]
吼 216.104.206.89:5678 4479ms UG [Africa Online (T) Ltd]
梆 43.230.195.38:5678 4828ms KH [COGETEL Co]
吼 94.153.232.146:4153 3351ms UA [Kyivstar UA]
葛 102.38.50.133:4153 4003ms SO [Somlink Wireless]
叼 46.174.209.36:5678 3107ms PL [Podkarpacki.net Rafal Czarny]
ю 177.130.49.6:5678 6039ms BR [Wsp Servi?os de Telecomunica??es Ltda]
吼 194.44.20.112:5678 3233ms UA [State Enterprise Scientific and Telecommunication Centre "Ukrainian Academic an]
桂 203.150.113.145:5678 4105ms TH [Internet Thailand Company Ltd.]
ю 43.243.206.110:5678 1696ms BD [BDCOM Online Limited]
叼 77.65.118.57:5678 3585ms PL [Inea S.A]
别 141.105.86.130:44660 3411ms LB [CYBERIA]
 118.98.65.147:4153 3943ms ID [PT. TELKOM INDONESIA]
叼 46.174.235.84:5678 7309ms PL [Interkam Szczepanik Spolka Komandytowa]
ю 187.33.251.26:5678 3250ms BR [TELY Ltda]
 95.38.145.132:4153 2515ms IR [Cooperative Afra ertebatat-e-sabet-e Rasa Co]
 185.138.114.81:5678 7835ms IE [Enet Telecommunications Networks Limited]
ю 115.127.103.82:5678 4757ms BD [BRACNet Limited]
 83.215.53.79:5678 3407ms AT [SALZBURG-AG]
佛 77.236.234.250:3629 2088ms RU [JSC "ER-Telecom Holding"]
ю 181.188.169.116:5678 6765ms BO [Telef贸nica Celular de Bolivia S.A.]
 41.243.9.146:5678 4109ms CD [Celtel DRC]
 103.146.184.59:1088 1415ms ID [YAMNET]
叼 46.174.235.37:5678 1983ms PL [Interkam Szczepanik Spolka Komandytowa]
别 183.182.99.192:5678 1259ms LA [Star Telecom Company]
 183.81.153.154:5678 2161ms ID [Internet Service Provider]
 36.68.151.22:5678 5625ms ID [PT. TELKOM INDONESIA]
 46.107.238.232:5678 1893ms HU [htc]
 93.118.100.69:5678 4321ms IR [Telecommunication Company of Iran]
 80.28.208.118:10801 2139ms ES [TDENET (Red de servicios IP)]
 45.125.117.22:5678 6223ms IN [Limras Eronet Broadband Service Private limited]
ю 131.196.184.11:5678 7660ms BR [net mania ltda me]
ю 191.5.103.81:5678 4830ms BR [Rede Global Tecnologia Ltda ME]
仇 105.112.137.66:5678 3032ms NG [Airtel Networks Limited]
 91.98.62.165:4145 3299ms IR [Pars Online PJS]
叼 94.240.29.203:5678 6492ms PL [Lukman Multimedia Sp. z o.o]
仇 124.41.252.31:5678 3606ms NP [WorldLink Communications]
 24.37.221.246:4145 2901ms CA [Le Groupe Videotron Ltee]
ю 186.233.46.54:4153 6404ms BR [Virtual Telecom Ltda]
桂 125.254.53.105:4153 613ms TH [United Information Highway Co., Ltd.]
 181.143.69.227:5678 2674ms CO [EPM Telecomunicaciones S.A. E.S.P.]
吼 91.226.35.37:5678 3623ms UA [DVS-Sat LLC]
ю 121.200.60.198:8010 1953ms BD [Drik ICT Ltd]
金 46.99.153.20:5678 4772ms XK [Ipko Telecommunications]
叼 94.40.90.49:5678 3762ms PL [TK Telekom sp. z o.o]
仇 103.232.230.9:3306 2771ms NP [RO-230 BroadLink]
 181.204.34.170:5678 5790ms CO [Colombia M贸vil]
梆 89.40.61.114:5678 3713ms KZ [Kar-Tel LLC]
ю 123.200.17.166:5678 2605ms BD [Link3 Technologies Limited]
ю 103.120.202.53:5678 4242ms BD [Carnival Internet]
 103.231.201.74:5678 1284ms ID [PT. Berdikari Prima Mandiri]
 95.107.173.35:5678 6633ms AL [TRING Customer With Static IP]
吼 5.149.218.10:5678 4024ms UA [Lancom Ltd.]
叼 94.240.37.90:5678 3605ms PL [Lukman Multimedia Sp. z o.o]
 103.54.29.81:5678 4858ms IN [Sonic Wireless Technologies]
 103.73.213.1:5678 1280ms IN [Nexsuses Solution]
 54.38.163.25:5678 1953ms FR [OVH SAS]
 222.165.205.154:5678 911ms ID [PT NettoCyber Indonesia]
ю 45.221.231.4:5678 4214ms BJ [SUD TELECOM SOLUTIONS]
仇 169.239.188.18:5678 6399ms NG [ETG Integrated Services Ltd. (Dolphin Telecom)]
叼 190.43.170.30:5678 4270ms PE [Telefonica del Per煤]
叼 94.232.145.158:5678 7179ms PL [Netsystem Tomasz Przybysz]
 85.94.179.70:5678 1636ms AD [Andorra Telecom SAU]
 93.91.201.70:5678 2133ms IQ [Newroz Telecom]
叼 89.161.89.20:5678 1626ms PL [Telekomunikacja Podlasie sp. z o.o.]
火 58.187.1.241:5678 885ms VN [FPTDYNAMICIP]
 103.24.73.122:5678 3967ms ID [Adi Inti Mandiri]
 105.174.30.162:5678 7934ms AO [UNITEL SA]
叼 124.106.13.206:4153 1226ms PH [Philippine Long Distance Telephone Co.]
 31.47.55.22:5678 5348ms IR [Afranet]
葛 193.87.172.133:4153 2724ms SK [SANET-AS2607]
 186.4.125.7:5678 6781ms AR [RSO APOLO HIDALGO S.R.L.]
 91.192.32.206:5678 2127ms CZ [ISP Alliance a.s.]
叼 94.240.24.91:5678 2834ms PL [Lukman Multimedia Sp. z o.o]
桂 212.174.171.180:5678 2894ms TR [TurkTelecom]
吼 46.172.223.34:5678 4057ms UA [FOP Sinev Maksim Viktorovich]
ю 170.254.252.30:5678 4912ms BR [Connect Fibra]
ю 203.202.245.216:5678 4956ms BD [Aamra Networks Limited]
 190.149.55.214:5678 5870ms GT [Telgua]
梆 91.235.176.174:5678 4742ms KZ [X-communication LLP]
 186.97.167.26:5678 3601ms CO [Colombia M贸vil]
ю 103.140.205.197:1080 6400ms BD [Novus Network]
 190.152.19.206:5678 6114ms EC [Corporacion Nacional De Telecomunicaciones - CNT EP]
 163.53.210.13:5678 5702ms IN [GTPL Shiv Network Pvt Ltd]
佛 46.182.28.203:1080 2703ms RU [OOO "Network of data-centers "Selectel"]
拆 105.234.155.221:5678 5302ms MW [Airtel Malawi]
火 117.4.243.26:5678 3231ms VN [Viettel Corporation]
梆 188.246.239.42:5678 2604ms KZ [Kar-Tel LLC]
叼 124.107.37.51:5678 3038ms PH [Philippine Long Distance Telephone Co.]
 90.182.22.146:5678 2913ms CZ [CZ.CZNET]
 117.252.211.45:5678 1639ms IN [BSNL Internet]
 45.116.1.54:5678 1284ms IN [Ethernet Xpress Pvt. Ltd.]
火 123.24.205.168:5678 2039ms VN [VietNam Post and Telecom Corporation]
 103.3.77.194:5678 5040ms ID [PT.Indonesia Comnets Plus]
 103.80.83.134:5678 922ms ID [Jaringanku Sarana Nusantara]
吼 217.20.189.165:3629 4651ms UA [WNET TELECOM USA Corp.]
 181.164.134.109:5678 4746ms AR [Telecom Argentina S.A]
拆 202.21.127.94:5678 2235ms MN [Mobinet LLC]
 103.249.25.50:5678 2327ms IN [Smartlink Solutions]
叼 179.43.98.186:5678 7036ms PE [GLG PERU SAC]
葛 31.167.83.206:5678 3556ms SA [Etihad Etisalat]
佛 185.5.17.19:3629 3487ms RU [Beltelecom Net]
 202.182.55.250:5678 920ms ID [PT Remala Abadi]
 91.224.70.54:4153 1787ms AT [Manuel Kahr]
 117.54.12.7:5678 1301ms ID [PT IndoInternet]
ю 180.211.158.116:5678 2310ms BD [Bangladesh Telecommunications Company Ltd.]
叼 94.240.24.131:5678 5346ms PL [Lukman Multimedia Sp. z o.o]
 217.64.29.139:5678 3521ms AZ [Bakinternet ISP]
 92.242.221.169:5678 5379ms IR [Pooya Parto Qeshm Cooperative Company]
 103.157.14.137:4153 6444ms IN [Wincom Telelink Pvt Ltd]
 123.108.98.89:5678 1042ms ID [PEMDA-NAD]
 91.98.4.17:3629 3757ms IR [Pars Online PJS]
叼 58.69.56.167:5678 5089ms PH [Philippine Long Distance Telephone Co.]
 213.217.54.91:5678 2485ms IR [ParsOnline Co]
火 222.252.21.100:5678 4053ms VN [VietNam Post and Telecom Corporation]
桂 154.73.65.161:5678 6550ms TZ [Power and Network, Backup Company Ltd]
 103.141.254.25:5678 7734ms ID [PT Mayatama Solusindo]
拆 93.119.166.150:5678 3678ms MD [Moldtelecom SA]
 31.46.41.214:5678 2539ms HU [Magyar Telekom]
 103.228.244.82:5678 806ms ID [GPM Customer Pemkab Lamtim]
火 58.187.147.204:5678 3844ms VN [Vietnam Internet Network Information Center]
 186.97.169.146:5678 3625ms CO [Colombia M贸vil]
 190.115.255.106:5678 3928ms CO [Emtel S.a. E.S.P.]
吼 217.20.174.141:5678 2289ms UA [W-net ISP]
吼 93.126.91.179:5678 3403ms UA [Proline TM]
 94.141.4.66:5678 2945ms IT [Irideos S.P.A.]
 49.206.195.170:5678 2437ms IN [ACT Fibernet]
叼 94.154.31.106:5678 3143ms PL [Slawomir Zapart trading as ZAPNET KAROL ZAPART Sp.j]
 217.64.46.114:5678 1719ms FI [Mediam Oy]
别 86.100.36.38:5678 2246ms LT [Balticum TV network]
 91.239.237.151:5678 2875ms CZ [Hanspaul]
吼 178.136.203.125:5678 2948ms UA [PRIVATE JOINT-STOCK COMPANY "FARLEP-INVEST"]
梆 92.245.114.98:5678 4052ms KG [Megaline LLC]
拆 93.116.189.131:5678 2299ms MD [JSC MOLDTELECOM SA]
佛 94.230.6.26:5678 3712ms RU [ncport]
 81.91.151.94:5678 5419ms IR [Farabord Dadeh Haye Iranian Co.]
ю 177.73.94.186:5678 4144ms BR [Speeding Telecom]
叼 94.240.16.243:5678 2100ms PL [Lukman Multimedia Sp. z o.o]
 81.91.144.46:5678 5033ms IR [Farabord Dadeh Haye Iranian Co.]
ю 103.134.241.125:5678 5369ms BD [Winer Communication]
桂 212.174.171.160:5678 3193ms TR [TurkTelecom]
 5.202.81.20:5678 5069ms IR [Pishgaman Toseeh Ertebatat Company (Private Joint Stock)]
ю 27.54.150.210:5678 4421ms BD [X-press Technologies Limited]
桂 88.255.134.147:50935 3359ms TR [Turk Telekomunikasyon Anonim Sirketi]
ю 45.14.36.146:5678 3353ms BA ["Formea" drustvo za trgovinu]
 103.144.18.198:5678 2970ms ID [PT Gasatek Bintang Nusantara]
吼 81.95.181.215:5678 2028ms UA [FREENET]
 103.87.201.207:4145 516ms ID [PT. Fiber Networks Indonesia]
 123.253.124.28:5678 5350ms IN [Multi Acquisitions And Renewals]
拆 43.242.242.140:5678 1862ms MN [MCS Com Co Ltd]
ю 177.91.96.113:5678 5177ms BR [Pollynet - MP Telecom Servicos E Comercio Ltda]
桂 110.164.156.114:5678 840ms TH [JasTel Network]
ю 202.4.113.218:5678 2188ms BD [Dhakacom]
拆 202.131.236.202:5678 2328ms MN [Mobinet LLC]
 85.92.44.67:5678 1763ms CZ [Internext 2000]
ю 177.87.35.130:5678 4173ms BR [Vero Internet]
吼 201.221.4.126:5678 3972ms UY [Tecnowind S.A.]
 83.215.182.87:5678 2811ms AT [SALZBURG-AG]
 186.96.112.198:5678 3214ms CO [TV AZTECA SUCURSAL COLOMBIA]
 217.64.27.144:5678 3396ms AZ [Baktelekom]
拆 80.85.98.110:5678 2088ms MT [Epic Communications Limited]
吼 82.207.110.150:5678 1887ms UA [UKRTELECOM]
 185.94.82.213:5678 5932ms IT [ADSL Surf]
 43.230.213.193:5678 3212ms IN [Apollo Online Services Pvt ltd]
佛 212.200.80.97:5678 4200ms RS [TELEKOM SRBIJA a.d.]
 190.145.173.202:5678 3673ms CO [Telmex Colombia S.A.]
吼 91.219.235.169:5678 3801ms UA [Real-Web Crimea LLC]
 152.231.62.172:5678 5232ms AR [Intercom SRL]
佛 94.180.122.221:5678 3652ms RU [JSC "ER-Telecom Holding"]
 45.118.35.129:5678 2110ms IN [Infonet Comm Enterprises]
叼 58.69.236.196:5678 1476ms PH [Philippine Long Distance Telephone Co.]
ю 177.86.97.58:5678 5018ms BR [Asernet Telecom]
桂 31.145.18.82:5678 3041ms TR [Vodafone NET Iletisim Hizmetleri Anonim Sirketi]
别 178.19.28.157:5678 5274ms LT [Roventa]
ю 192.141.236.10:5678 4609ms BR [MSE Servio de Com. Multimdia EIRELI]
ю 151.251.60.226:5678 2061ms BG [SiS Net 05 EOOD]
ю 103.132.92.110:5678 5140ms BD [Premium Connectivity Limited]
筐 154.73.153.156:5678 4135ms ZA [Skyconnect]
 109.127.82.114:5678 3373ms IQ [Newroz Telecom]
ю 170.0.168.50:5678 4413ms BR [Frosinet - Frosi Informtica Ltda]
 45.71.185.42:3629 3763ms EC [Nedetel S.A.]
 190.188.244.23:5678 6243ms AR [Telecom Argentina S.A.]
ю 103.127.57.32:5678 1870ms BD [Unified Core Limited]
仇 102.67.3.210:5678 6208ms NG [KKON Technologies Ltd]
 176.65.240.48:5678 3434ms IR [Asiatech Data Transmission company]
 203.192.251.50:5678 3315ms IN [Entire In2Cable]
 190.92.103.20:5678 7355ms AR [COOP. ELECTRICA DE TODD LTDA]
ю 202.5.46.145:5678 3153ms BD [BBTS-NEW]
叼 213.6.77.198:5678 4488ms PS [Palestine Telecommunications Company]
佛 41.216.96.34:5678 3830ms RW [Maintainer Liquid Telecommunications Operations Limited]
叼 161.49.158.165:5678 1336ms PH [Converge Information and Communications Technology Solutions]
仇 110.44.113.162:5678 1253ms NP [Vianet Communications Pvt. Ltd]
仇 41.242.66.74:5678 3873ms NG [General Telecommunication Networks Limited]
佛 89.221.52.140:5678 1914ms RU [Svyaz-Holding Ltd.]
仇 202.166.217.3:5678 6766ms NP [WorldLink Communications]
ю 187.49.193.202:5678 3399ms BR [Center Prestadora Servios S/C Ltda]
火 222.252.28.21:5678 1929ms VN [VietNam Post and Telecom Corporation]
吼 194.44.38.111:5678 7202ms UA [Science Production Enterprise Solver Ltd]
 87.228.198.90:5678 4201ms CY [CYTANET - Cyprus Telecommunications Authority]
 195.29.217.126:5678 1977ms HR [Hrvatski Telekom d.d.]
桂 154.73.65.15:5678 5392ms TZ [Power and Network, Backup Company Ltd]
叼 190.239.24.70:5678 3449ms PE [Telefonica del Peru]
ю 191.7.4.194:5678 5293ms BR [tutasme net]
仇 43.245.95.210:3306 1862ms NP [BroadLink Networks and Communications]
 117.239.13.180:5678 2320ms IN [BSNL Internet]
 201.187.102.73:5678 5227ms CL [Telefonica del Sur S.A.]
 181.209.111.166:4153 5562ms AR [ARSAT - Empresa Argentina de Soluciones Satelitales S.A]
 41.223.49.155:5678 2678ms GN [MOUNA Group Technology Sa.]
 45.155.231.53:1080 1435ms FR [Appliwave SAS]
 80.210.29.107:5678 3046ms IR [TIC]
ю 27.147.144.122:4153 2231ms BD [Link3 Technologies Limited]
 103.143.8.126:5678 2167ms IN [Juweriyah Networks Private Limited]
 186.159.164.52:5678 3585ms CR [Cable Tica]
 103.146.0.6:5678 1436ms IN [Revolution Broadband Pvt. Ltd]
别 92.49.31.16:5678 2094ms LV [Elektrons-k.lv]
ю 202.53.171.74:5678 2369ms BD [Agni Systems Ltd.]
ю 177.72.64.6:5678 4616ms BR [Speakers Projetos e Execuo em Audio Ltda]
筐 160.226.203.247:1080 2466ms ZA [Iclix (PTY) Ltd]
 41.190.233.56:5678 7459ms CD [Orioncom SPRL]
 201.220.85.22:5678 2659ms CO [Metrotel SA ESP]
ю 177.85.234.142:5678 4476ms BR [UWBR VOX Telecomunicaes S/A]
 186.179.68.194:5678 3042ms CR [Ufinet Panama S.A.]
 46.167.201.99:5678 2140ms CZ [UPC Czech]
火 14.241.182.44:5678 1985ms VN [VNPT]
 103.143.24.58:5678 1361ms ID [PT SUMBER KONEKSI INDOTELEMATIKA]
ю 43.246.203.61:5678 2294ms BD [Cyber Way Technology]
 91.126.193.121:5678 3773ms ES [Adamo Telecom Iberia S.A.]
ю 181.188.183.122:5678 6202ms BO [Telef贸nica Celular de Bolivia S.A.]
 81.16.1.71:5678 3565ms AM [Ucom CJSC]
 103.144.220.252:5678 1034ms ID [PT. Indonesia Comnets Plus]
 181.129.35.234:5678 3683ms CO [EPM Telecomunicaciones S.A. E.S.P.]
梆 85.29.129.140:5678 3719ms KZ [Kar-Tel LLC]
吼 93.175.204.12:5678 2244ms UA [Teleradiocompany Discovery Ltd]
 186.10.10.138:5678 3050ms CL [Entel Chile S.A.]
 89.133.246.90:5678 5486ms HU [Vodafone Hungary Ltd.]
吼 129.205.25.127:5678 6694ms UG [Roke Investments International Ltd]
拆 178.168.114.177:5678 3457ms MD [SC STARNET SRL]
 186.97.172.178:5678 2762ms CO [Colombia M贸vil]
ю 177.54.55.90:5678 3415ms BR [Engeplus Informatica Ltda]
ю 201.55.89.18:5678 3323ms BR [Brasilsite Telecomunicaes Ltda.]
ю 177.54.228.147:5678 5704ms BR [Aranet Comunicacao Ltda]
别 41.191.205.234:5678 7986ms LS [WIMAX-PUBLIC]
 103.143.8.122:5678 2719ms IN [Juweriyah Networks Private Limited]
火 27.74.243.242:5678 1865ms VN [Viettel Group]
 117.211.9.14:5678 3681ms IN [BSNL Internet]
叼 119.93.53.134:5678 1210ms PH [Philippine Long Distance Telephone Co.]
ю 146.120.8.238:5678 1793ms BA [Telesat d.o.o.]
 80.191.40.41:5678 3786ms IR [Telecommunication Company of Iran]
 200.54.104.219:5678 3582ms CL [TEEMSR-LACNIC]
 109.125.130.229:5678 4374ms IR [PTS-Network]
ю 103.58.75.24:5678 2047ms BD [BUSINESSNETWORK]
叼 46.151.220.250:5678 7078ms PL [Rafal Slawinski Sejnet]
佛 109.195.55.154:4153 3959ms RU [CJSC "ER-Telecom Holding" Voronezh branch]
别 185.184.84.162:5678 3020ms LB [ZINA sarl]
叼 46.148.74.170:5678 3121ms PL [TPnets.com Sp. z o.o.]
ю 177.75.237.14:5678 3591ms BR [Garra Telecom Ltda]
ю 143.202.217.148:5678 5695ms BR [Telecomunica莽玫es Ltda]
拆 37.26.136.175:3629 2896ms MD [JSCC Interdnestrcom]
仇 217.149.135.21:5678 1513ms NL [SIGNETNL]
 190.92.72.242:5678 3444ms HN [Cablecolor S.A]
别 213.226.177.153:5678 6480ms LT [BITE-INTERNET]
拆 105.234.156.237:5678 7747ms MW [Airtel Malawi]
 81.91.158.50:3629 2561ms IR [Farabord Dadeh Haye Iranian Co.]
吼 85.90.208.64:5678 6466ms UA [Company group "Velton.Telecom"]
 37.252.86.97:5678 3010ms AM [Ucom Cjsc]
 181.36.225.220:5678 3387ms DO [Altice Dominicana S.A.]
 217.113.31.170:5678 2132ms AM [GNC]
火 14.241.225.179:5678 4296ms VN [VNPT]
别 185.82.98.73:5678 4752ms LB [Protected]
ю 202.191.124.50:5678 2314ms BD [Bijoy Online Ltd]
拆 185.46.60.108:5678 3647ms MD [CAHUL-BRANCH]
ю 88.203.145.58:5678 1512ms BG [Spectrum]
叼 195.206.112.59:5678 2409ms PL [Pawel Kowalski BGCOM]
仇 43.243.60.56:5678 1830ms NZ [2talk Limited]
佛 109.194.51.143:1080 3066ms RU [CJSC "ER-Telecom" Holding" Kursk branch]
ю 200.149.32.34:5678 3741ms BR [Telemar Norte Leste S.A.]
佛 89.36.160.205:4153 2798ms RO [Best Telecom SRL]
ю 168.232.60.242:5678 6878ms BR [VGP INTERNET LTDA - ME]
筐 41.180.80.110:5678 3472ms ZA [X-dsl Networking Solutions]
 103.153.62.70:5678 1761ms ID [IMEDIANET]
拆 178.168.91.178:5678 3489ms MD [SC STARNET SRL]
ю 119.2.108.62:5678 2488ms BT [Bhutan Telecom Ltd]
筐 156.155.188.152:5678 4656ms ZA [AxxessNetworks]
叼 94.240.8.147:5678 3076ms PL [Lukman Multimedia Sp. z o.o]
 103.113.104.246:5678 2704ms IN [Ekowebtech It Services Pvt Ltd]
梆 202.62.58.102:5678 914ms KH [COGETEL Co., Ltd]
ю 210.4.72.94:5678 4530ms BD [BDCOM Online Limited]
仇 203.109.200.68:5678 3610ms NZ [VFNZ-DSL]
 85.185.166.110:5678 5509ms IR [Iran Telecommunication Company PJS]
仇 102.69.146.168:5678 3951ms NG [IP Express Ltd]
佛 212.200.149.242:5678 3151ms RS [TELEKOM-SRBIJA]
ю 78.83.215.82:5678 3275ms BG [A1 Bulgaria EAD]
火 14.241.239.36:5678 4905ms VN [VNPT]
仇 202.51.68.149:5678 1522ms NP [CCNEP]
吼 109.110.82.245:5678 2858ms UA [Lancom Ltd.]
ю 187.60.66.45:5678 6442ms BR [Cabo Servicos De Telecomunicacoes Ltda]
梆 79.142.57.215:5678 3235ms KZ [Smartnet TOO]
ю 201.77.165.253:5678 4464ms BR [Tremnet Fibra]
吼 158.51.66.199:5678 3622ms US [Mitec Solutions]
仇 156.0.249.109:5678 6435ms NG [PlatinumBlock249]
叼 89.161.27.84:5678 1625ms PL [Telekomunikacja Podlasie sp. z o.o.]
ю 177.91.126.125:5678 4058ms BR [ROS Telecom]
 110.172.162.13:5678 3061ms IN [World Phone Internet Service Pvt. Ltd]
叼 89.186.1.169:5678 4294ms PL [Artur Sienkiewicz]
ю 177.38.176.6:5678 3442ms BR [Micks Telecom Eireli]
 37.252.87.187:5678 3629ms AM [Ucom Cjsc]
ю 200.229.81.61:5678 3820ms BR [High Tech Telecom Ltda]
叼 94.240.10.115:5678 4800ms PL [Lukman Multimedia Sp. z o.o]
ю 181.115.186.10:5678 4872ms BO [Entel S.A. - EntelNet]
吼 31.134.75.174:5678 2394ms UA [Lanet Network]
 5.181.195.89:82 2409ms IT [Sinergia Telecomunication]
吼 46.151.192.224:5678 4384ms UA [Miratel Ltd]
别 81.198.118.19:5678 3707ms LV [Lattelekom]
ю 45.235.162.254:5678 6249ms BR [Norte.Net Telecomunicaes Ltda]
ю 45.6.15.67:5678 5751ms BR [G-link Telecom]
ю 201.33.170.122:5678 3094ms BR [K2 Telecom e Multimidia LTDA ME]
ю 186.236.237.55:5678 5362ms BR [Net Rosas Telecomunicaes Ltda.]
吼 37.53.85.116:5678 2517ms UA [UKRTELECOM]
桂 185.177.0.157:5678 3806ms TJ [Opened Joint Stock Company "Tojiktelecom"]
ю 177.39.10.126:5678 4440ms BR [HD CONNECT INTERNET LTDA]
ю 95.158.189.4:5678 1924ms BG [Novatel Ltd]
叼 185.237.20.218:5678 2035ms PL [helpful sp. z o.o.]
 185.172.0.242:5678 3762ms IR [Farabord Dadeh Haye Iranian Co.]
叼 79.110.196.66:48165 3960ms PL [Korbank S. A.]
ю 177.36.35.166:5678 3850ms BR [Avato Tecnologia]
ю 186.121.249.162:5678 5436ms BO [AXS Bolivia S. A.]
ю 201.76.121.59:5678 3357ms BR [HTEC Telecomunicacoes EIRELI]
 103.79.152.202:5678 1871ms ID [MORATELINDO]
ю 79.100.104.146:5678 3348ms BG [BTC-BROADBAND]
叼 156.67.107.87:5678 3303ms PL [Mega Centrum Plus Zak Ryszard]
佛 178.169.82.32:3629 2649ms RU [Multi-Net plus]
ю 186.225.55.134:5678 3379ms BR [Sobralnet Servicos E Telecomunicacoes Ltda - ME]
仇 102.36.229.98:5678 6919ms NG [Timeless Network Services Ltd]
筐 41.221.158.130:5678 5491ms ZW [Africom Pvt Ltd]
吼 89.19.105.239:5678 3159ms UA [Grygoriy Chereda]
仇 43.245.87.241:5678 1265ms NP [Vianet Communications Pvt. Ltd]
ю 190.186.91.195:5678 4178ms BO [Cotas Ltda.]
火 14.160.3.78:5678 1927ms VN [VNPT-VNNIC]
ю 187.103.0.8:5678 4185ms BR [NEWNET CONSULTORIA, INFORMATICA LTDA]
ю 186.251.118.104:5678 4458ms BR [WEB NET COMERCIO DE EQUIPAMENTOS LTDA]
 202.158.78.194:5678 3179ms ID [ADITAMA6]
 178.252.129.210:5678 3838ms IR [GOSTARESH-E-ERTEBATAT-E MABNA COMPANY (Private Joint Stock)]
吼 82.207.26.181:5678 6680ms UA [UKRTELECOM]
火 118.70.126.245:5678 927ms VN [Vietnam Internet Network Information Center]
叼 37.130.4.43:5678 7236ms PL ["InterKAM" S.C]
 118.127.117.214:5678 4820ms AU [Spirit Telecom (Australia) Pty Ltd]
 181.13.132.179:5678 6819ms AR [Telecom Argentina S.A]
 103.36.126.222:5678 5117ms IN [Gigantic Infotel Pvt Ltd]
 115.242.248.226:5678 2452ms IN [Reliance Jio Infocomm Limited]
桂 102.64.69.132:5678 3848ms TZ [Net Solutions Limited]
叼 213.6.36.146:5678 5862ms PS [Palestine Telecommunications Company]
ю 177.101.130.11:5678 7409ms BR [Ampernet Telecomunicaes Ltda]
吼 178.209.66.84:5678 2754ms UA [Cifrovye Dispetcherskie Sistemy]
ю 103.145.133.22:5678 1065ms BD [Md Raisul Islam]
吼 91.206.4.50:5678 2382ms UA [Faust ISP Network]
 185.82.238.249:5678 3264ms CZ [Nordic Telecom Regional s.r.o.]
 91.126.138.135:5678 4342ms ES [Adamo Telecom Iberia S.A]
 181.113.0.38:5678 3773ms EC [Corporacion Nacional De Telecomunicaciones - CNT EP]
ю 177.136.228.58:4153 4401ms BR [BRX TELECOMUNICACOES LTDA - EPP]
 212.237.125.175:5678 5426ms IQ [Kurdistan Net 4]
叼 94.40.87.114:5678 1875ms PL [ALARMADI Adrian Dobrogowski]
桂 49.0.81.219:5678 4181ms TH [AIS-Fibre]
佛 94.28.30.93:5678 3385ms RU [JSC "ER-Telecom Holding"]
ю 103.239.255.130:5678 2237ms BD [Carnival Internet]
 91.209.114.78:5678 1684ms HU [Invitech ICT Services Kft.]
 190.84.31.74:5678 3143ms CO [Telmex Colombia S.A.]
仇 110.44.123.153:5678 1995ms NP [Vianet Communications Pvt. Ltd]
叼 178.212.54.137:5678 6527ms PL [Lubuskie Sieci Swiatlowodowe Sp. z o. o.]
ю 200.105.192.6:5678 6557ms BO [AXS Bolivia S. A.]
 78.39.188.32:4153 2775ms IR [DCI]
佛 212.200.160.106:5678 4795ms RS [TELEKOM SRBIJA a.d]
拆 41.72.214.14:5678 5336ms MU [Liquid Telecommunications Ltd]
火 103.17.90.6:5678 2899ms VN [VNTT]
 190.97.183.221:5678 5304ms HN [COMPAIA DE TELEVISION VIA SATELITE, S.A.]
 190.92.4.231:5678 2633ms HN [Cablecolor S.A]
梆 203.80.170.19:5678 2111ms KH [CAMBODIAN SINGMENG TELEMEDIA CO., LTD]
叼 5.226.73.230:5678 3696ms PL [NETIA]
 119.18.159.14:5678 771ms ID [PT. Jala Lintas Media]
ю 201.46.29.115:5678 3543ms BR [America-NET Ltda.]
火 117.4.242.216:5678 2454ms VN [Viettel Corporation]
叼 78.88.216.18:5678 1944ms PL [Broadband users of VECTRA S.A.]
ю 168.205.124.14:5678 3719ms BR [BRASIL DIGITAL SERVIOS DE INFORMATICA E COMERCIO]
梆 115.178.27.23:5678 683ms KH [Cambodian Singmeng Telemedia CO]
 116.90.208.151:5678 515ms ID [PT Multi Data Palembang]
ю 200.105.149.186:5678 6458ms BO [AXS Bolivia S. A.]
 186.86.137.96:5678 4518ms CO [Telmex Colombia S.A.]
ю 45.229.154.101:5678 4752ms BR [Conectell Telecom]
 202.58.205.170:5678 3115ms ID [Internet Madju Abad Millenindo, PT]
叼 185.186.17.57:5678 6149ms PL [Media Telekom Sp. z o.o.]
 178.72.151.231:5678 4144ms AM [Supercom LLC]
ю 45.182.177.106:5678 3074ms BR [Evolucao Telecom Ltda]
 125.162.138.167:5678 1707ms ID [PT. TELKOM INDONESIA]
叼 195.242.138.20:5678 2783ms PL [Netia]
ю 201.33.192.19:5678 4263ms BR [V.B. Telecomunicaes LTDA.]
ю 201.46.24.10:5678 6286ms BR [America-NET Ltda.]
ю 190.186.216.196:5678 3200ms BO [Cotas Ltda.]
吼 37.53.93.128:5678 2762ms UA [UKRTELECOM]
火 27.72.145.184:5678 1326ms VN [Newass2011xDSLHN]
 190.115.6.115:5678 3097ms GT [Ufinet Panama S.A.]
叼 178.212.52.67:5678 6554ms PL [Lubuskie Sieci Swiatlowodowe Sp. z o. o.]
别 185.126.47.75:5678 4529ms LB [Elie Achkar trading as Micro Smart System]
 181.114.25.58:5678 2425ms GT [Columbus Networks Guatemala]
ю 27.147.254.209:5678 4040ms BD [Link3 Technologies Limited]
 195.81.66.4:5678 3213ms IT [Dieffeitalia.it]
佛 195.34.245.220:5678 3333ms RU [PJSC Rostelecom]
 195.228.65.164:5678 3141ms HU [Magyar Telekom plc.]
吼 109.87.130.6:5678 2397ms UA [Triolan]
 200.119.114.45:5678 4590ms CO [ETB - Colombia]
 191.103.216.42:5678 6711ms CO [Edatel S.a. E.S.P]
 78.38.90.160:5678 4736ms IR [Iran Telecommunication Company PJS]
ю 186.225.36.122:5678 3377ms BR [Sobralnet Servicos E Telecomunicacoes Ltda - ME]
 123.231.175.19:5678 2927ms ID [Network Access Provider and Internet Service Provider]
梆 167.179.6.66:5678 2636ms KH [NeocomISP Limited]
 201.219.156.18:5678 3862ms CL [FullCom S.A.]
吼 91.214.28.220:3629 5240ms UA [TOV "Telza"]
ю 128.201.156.102:5678 5018ms BR [Sofia NET]
仇 41.242.62.27:5678 3796ms NG [BCN]
梆 124.248.190.71:5678 928ms KH [COGETEL Co., Ltd]
 49.156.152.5:5678 3585ms IN [City Online]
佛 109.60.139.34:3629 4239ms RU [Ivtelecom Ltd]
 190.115.255.238:5678 3748ms CO [Emtel S.a. E.S.P.]
ю 185.125.122.241:5678 1980ms BA [trion]
吼 185.109.55.2:5678 1712ms UA [Omega Telecom LLC]
筐 160.226.220.80:1080 2465ms ZA [Iclix (PTY) Ltd]
ю 177.36.221.37:5678 3232ms BR [NT Brasil Tecnologia Ltda. ME]
吼 179.27.50.102:5678 6054ms UY [Administracion Nacional de Telecomunicaciones]
吼 195.22.110.176:5678 2241ms UA [FLP Bogachenko Vasyl Valentinovich]
桂 78.189.20.150:5678 1899ms TR [TTNet A.S.]
桂 78.186.27.213:5678 2988ms TR [TurkTelecom]
ю 170.81.110.125:5678 5118ms BR [Navetech Telecom]
ю 160.238.179.164:5678 4365ms BR [Infra Solues de Informtica Ltda Me]
ю 170.84.92.162:5678 4094ms BR [Bomfim E Sousa Ltda]
ю 119.148.4.242:5678 2247ms BD [Agni Systems Ltd. SUB]
 78.102.14.1:5678 3715ms CZ [Vodafone Czech Republic a.s.]
ю 43.243.206.163:5678 3514ms BD [BDCOM Online Limited]
ю 191.34.164.66:5678 7019ms BR [TELEFNICA BRASIL S.A]
ю 177.11.84.9:5678 6345ms BR [Minas Turbo Provedor de Internet]
 114.57.39.113:5678 3939ms ID [PT. Indosat Mega Media]
ю 168.195.252.15:5678 3510ms BR [Bahianet Ltda.]
梆 203.80.171.138:5678 1597ms KH [CAMBODIAN SINGMENG TELEMEDIA CO., LTD]
 185.168.225.54:5678 3232ms GE [LLC Skytel]
 193.107.12.53:5678 1973ms AL [Digitel Albania Shpk]
叼 110.38.56.10:5678 2288ms PK [Wateen Telecom Limited]
 115.85.86.114:5678 1768ms ID [Sudirman Central Business District]
葛 193.77.64.135:5678 3165ms SI [SiOL.SI]
ю 102.68.102.98:5678 2218ms BF [Alink Telecom Faso v]
叼 37.130.58.168:5678 3001ms PL ["InterKAM" S.C]
 190.144.167.178:5678 3637ms CO [Telmex Colombia S.A.]
ю 201.20.84.157:5678 4327ms BR [Mob Servicos de Telecomunicacoes Ltda]
ю 118.179.84.146:5678 2186ms BD [Dhakacom Limited]
ю 177.101.139.197:5678 3164ms BR [Ampernet Telecomunicaes Ltda]
 78.131.55.38:5678 3497ms HU [DIGI]
 103.213.212.70:5678 5993ms IN [Syscon Infoway Pvt. Ltd.]
 103.107.94.138:5678 3648ms IN [Netncr Technology Pvt Ltd]
 36.94.178.53:5678 1696ms ID [PT. Telekomunikasi Indonesia]
 37.238.136.12:5678 6758ms IQ [EarthLink Ltd. Communications&]
叼 193.106.130.35:5678 3017ms PL [Polskie Sieci Szerokopasmowe Sp. z o. o]
ю 143.0.196.220:5678 4533ms BR [Polli Telecom]
仇 185.134.216.212:5678 3846ms NL [Comsave B.V.]
 109.236.47.242:4145 4076ms AL [Abissnet PPPoE]
 195.69.231.254:5678 2693ms IQ [Baghdad Link to Internet Services Provider and Information Technology LLC]
梆 197.248.196.90:5678 6049ms KE [Safaricom Limited]
梆 203.223.44.214:5678 2194ms KH [Telecom Cambodia (T.C.)]
仇 124.41.208.12:5678 5574ms NP [WorldLink Communications]
 103.77.41.86:5678 3722ms IN [Anjani Broadband Solutions Pvt Ltd]
吼 139.159.118.14:5678 3463ms US [Capitalonline Data Service Co., LTD]
仇 139.5.71.243:5678 1173ms NP [WorldLink Communications]
ю 103.7.248.86:5678 1280ms BD [FIBERATHOME]
 78.111.119.116:5678 7568ms CZ [GRAPESC II]
 139.0.21.236:5678 2082ms ID [PT. First Media, Tbk]
ю 177.125.211.1:5678 5080ms BR [LIGUE MVEL LTDA]
 186.97.198.18:5678 4362ms CO [Colombia M贸vil]
ю 177.128.81.130:5678 4381ms BR [IBI TELECOM EIRELI]
仇 103.1.94.178:5678 2435ms NP [Classic Tech Pvt. Ltd]
筐 102.39.211.132:5678 7316ms ZA [Vox Telecom]
ю 103.132.217.71:5678 1320ms BD [NET CONNECT]
 201.236.255.97:5678 3973ms CO [EPM Telecomunicaciones S.A. E.S.P.]
 27.123.5.26:5678 1469ms ID [PT Tele Globe Global]
吼 31.135.177.172:5678 2106ms UA [PE Merzhevskiy Anatoliy Volodymyrovich]
ю 118.67.217.158:5678 1899ms BD [InterCloud Limited]
 103.102.58.129:5678 2997ms IN [Navkar Netsol Private Ltd]
佛 5.2.242.41:5678 3617ms RO [RCS & RDS]
 36.89.253.201:5678 3481ms ID [PT. Telekomunikasi Indonesia]
佛 5.172.13.52:5678 2126ms RU [INSYS network]
ю 201.17.17.154:5678 7149ms BR [Claro S.A.]
 115.85.85.162:5678 1791ms ID [Sudirman Central Business District]
ю 177.222.60.138:5678 3788ms BO [Telef贸nica Celular de Bolivia S.A.]
火 14.177.66.152:5678 1362ms VN [VNPT]
 213.178.223.54:5678 2352ms IT [Medi@net S.r.l]
别 185.103.14.155:4153 3893ms LB [MTM s.a.r.l]
 181.174.205.34:5678 3927ms AR [Skycorp S.A]
 200.54.55.10:5678 6152ms CL [TEEMSR-LACNIC]
ю 187.102.176.121:5678 6410ms BR [Mundivox LTDA]
ю 186.235.86.113:5678 4104ms BR [BRAVA TELECOMUNICAES BRASILIA LTDA.]
桂 119.110.205.244:5678 633ms TH [Symphony Communication Public Company Limited]
 5.190.229.116:5678 4609ms IR [Iran Telecommunication Company PJS]
吼 77.120.162.238:5678 4539ms UA [Volia Kharkov]
佛 81.12.157.98:5678 5335ms RO [Vodafone RO]
 103.123.65.45:5678 1763ms ID [PT Mora Telematika Indonesia]
别 102.69.79.133:5678 3770ms LY [Aljeel Aljadeed For Technology]
ю 138.204.234.27:5678 6347ms BR [Nossarede Telecom LTDA ME]
桂 110.77.149.20:4153 636ms TH [CAT-BB]
叼 93.113.101.85:5678 2293ms PL [POLINEO Sp. z o.o.]
 200.29.8.18:5678 3760ms CL [Netup S.A]
 185.136.193.84:5678 4152ms IR [Honar Rayaneh Pooya Andisheh PJSC]
ю 181.114.171.28:5678 4771ms BO [Comteco Ltda]
 186.189.193.134:5678 3376ms GT [Comcel Guatemala S.A.]
筐 105.22.39.206:5678 5871ms ZA [SEACOM Limited Networks]
 103.207.8.82:5678 2416ms IN [Shree Balaji Infoway Private Limited]
 103.220.30.65:5678 3417ms IN [eSQUARE BROADBAND SOLUTIONS]
 119.2.54.37:5678 2491ms ID [GMEDIA]
ю 170.82.236.55:5678 4390ms BR [Interliga Solucoes Tecnologicas Ltda - ME]
ю 77.238.209.58:5678 1828ms BA [Telemach d.o.o. Sarajevo]
 181.143.81.52:5678 5748ms CO [EPM Telecomunicaciones S.A. E.S.P.]
ю 170.83.88.173:5678 4465ms BR [NET RIBAS TELECOMUNICACOES]
叼 178.212.48.51:5678 1859ms PL [Lubuskie Sieci Swiatlowodowe Sp. z o. o.]
ю 103.150.48.26:5678 2247ms BD [United Enterprises & CO Ltd.]
火 183.91.26.189:5678 1167ms VN [CMC Telecom Infrastructure Company]
 103.107.94.82:5678 5551ms IN [Netncr Technology Pvt Ltd]
吼 213.109.235.89:4153 1913ms UA [Teleradiocompany Discovery Ltd]
叼 37.130.40.67:5678 1964ms PL ["InterKAM" S.C]
吼 41.210.161.90:5678 7141ms UG [MTN Uganda]
桂 183.89.249.192:4153 5007ms TH [Triple T Internet Company Limited]
 185.136.151.252:5678 5052ms IQ [Kurdistan Net 19]
ю 114.134.90.43:5678 5166ms BD [OptiMax Communication Ltd]
吼 212.115.230.125:5678 2094ms UA [ISP "Fregat"]
吼 69.89.113.105:5678 5329ms US [ACD.net]
桂 101.51.141.109:5678 5105ms TH [TOT Public Company Limited]
 185.136.150.26:5678 3388ms IQ [Kurdistan Net 1]
 41.190.233.30:10801 6315ms CD [Orioncom SPRL]
梆 41.215.74.26:5678 1960ms KE [ACCESSKENYA]
 103.101.57.92:5678 2063ms IN [Fast Track Internet Service]
吼 176.120.32.135:5678 1689ms UA ["Langate" Ltd]
ю 177.38.247.130:5678 4333ms BR [Henet Telecomunicacoes Ltda]
吼 178.151.134.232:5678 2393ms UA [Triolan]
叼 119.92.71.123:5678 4291ms PH [Philippine Long Distance Telephone Co.]
火 101.96.123.20:1080 4918ms VN [NetNam Corporation]
叼 188.137.80.63:5678 6221ms PL [Leon Sp. z o.o.]
 77.104.75.97:5678 2404ms IR [Respina]
叼 176.120.126.7:5678 1813ms PL [Onefone SA]
 103.116.202.241:5678 1942ms ID [PT Parsaoran Global Datatrans]
桂 176.235.83.112:1080 3072ms TR [Tellcom Iletisim Hizmetleri A.S.]
ю 187.72.172.109:5678 3978ms BR [ALGAR TELECOM S/A]
梆 197.232.253.210:5678 6045ms KE [Jamii Telecommunications Limited]
ю 200.217.66.201:5678 3090ms BR [Telemar Norte Leste S.A.]
ю 138.0.74.156:5678 7191ms BR [Ultra Telecom]
 200.107.99.11:5678 6486ms AR [LOS AMORES S.A.]
梆 110.235.248.198:5678 1731ms KH [COGETEL Co]
ю 138.0.53.101:5678 5673ms BR [Coelho Tecnologia]
火 113.160.16.142:5678 4632ms VN [VietNam Post and Telecom Corporation]
ю 138.0.172.129:5678 3684ms BR [JustWeb Telecomunicaes LTDA]
 182.75.30.6:5678 7745ms IN [Bharti Airtel]
吼 109.86.48.113:5678 3702ms UA [Triolan]
ю 201.46.24.238:5678 3241ms BR [America-NET Ltda.]
 181.189.230.194:5678 5457ms HN [Columbus Networks de Honduras S. de R.L.]
拆 202.21.110.14:5678 3322ms MN [Mobinet LLC]
吼 185.235.132.196:5678 1670ms UA [ISP UATEL]
 103.159.242.233:5678 3601ms IN [Parasar]
吼 199.85.83.83:5678 2998ms US [Vyve Broadband]
 176.102.130.23:5678 1927ms CZ [Nordic Telecom Regional s.r.o]
 146.196.63.161:4145 2936ms IN [Acme Diginet Corporation Pvt. Ltd]
 103.78.75.18:5678 4052ms ID [PT Indonesia Comnets Plus]
仇 43.245.243.58:5678 6482ms NZ [Digital Island Limited]
 131.196.180.1:4153 4151ms AR [Cooperativa De Obras Y Servicios Publicos De Despenaderos Limitada]
 113.11.136.131:5678 734ms ID [PRIMA]
吼 176.118.51.82:3629 3146ms UA [Limited Liability Company Radio Network]
ю 118.67.223.4:5678 4104ms BD [InterCloud Limited]
仇 197.211.55.42:5678 3970ms NG [Globacom Limited]
ю 103.140.205.173:1080 4685ms BD [Novus Network]
ю 45.234.67.62:5678 6229ms BR [J.C BARBOSA SPEED NET]
 180.211.95.14:5678 1617ms ID [PT. KINGS NETWORK INDONESIA]
 103.156.161.96:5678 2707ms ID [MYREPUBLIC]
 112.78.175.140:5678 1828ms ID [BIZNET]
 109.167.12.10:5678 2789ms ES [Despliegue de Redes de Telecomunicaciones S.L.]
拆 1.32.57.85:5678 1676ms MY [Telekom Malaysia Berhad]
 182.72.227.16:5678 3275ms IN [Bharti Airtel]
 66.96.238.3:5678 1765ms ID [MYREPUBLIC]
 182.16.240.49:30617 565ms ID [PT. INTERLINK TECHNOLOGY]
拆 1.32.62.220:5678 1182ms MY [Tmnet, Telekom Malaysia Bhd.]
 66.96.252.122:5678 1859ms ID [PT. SMARTFREN TELECOM]
 196.218.170.172:5678 4455ms EG [TE Data]
 176.102.130.41:5678 3451ms CZ [Nordic Telecom Regional s.r.o]
 182.23.95.129:5678 5391ms ID [PT Aplikanusa Lintasarta]
桂 1.20.99.41:5678 4062ms TH [TOT-MOBILE]
 36.66.71.26:5678 2847ms ID [PT. Telekomunikasi Indonesia]
 36.67.136.27:5678 1829ms ID [PT. Telekomunikasi Indonesia]
 1.186.246.107:45091 1746ms IN [D-VoiS Broadband Private Limited]
筐 196.25.165.78:5678 4350ms ZA [Telkom SA Ltd.]
 62.99.77.171:5678 2290ms ES [Euskaltel S.A.]
 103.235.66.198:5678 4717ms ID [PT Artha Media Lintas Nusa]
叼 119.93.53.35:5678 1756ms PH [Philippine Long Distance Telephone Co.]
桂 196.41.46.242:5678 4081ms TZ [RAHA-LTZ]
桂 196.41.45.170:5678 7072ms TZ [Liquid Telecommunications Ltd]
筐 196.32.236.141:5678 3878ms ZA [Amobia Communications]
ю 131.108.124.117:5678 5030ms BR [Infortek Networks Ltda -ME]
 1.186.82.4:5678 4673ms IN [D-VoiS Broadband Private Limited]
筐 196.15.133.33:5678 3432ms ZA [Telkom SA Ltd.]
梆 175.100.5.47:5678 2695ms KH [VIETTEL (CAMBODIA) PTE., LTD]
 36.66.55.43:5678 2875ms ID [PT. Telekomunikasi Indonesia]
梆 175.100.16.45:5678 1274ms KH [VIETTEL (CAMBODIA) PTE., LTD]
ю 131.100.40.84:5678 5965ms BR [I3 Telecomunicacoes - EIRELI]
 111.68.121.154:5678 909ms ID [PT. Varnion Technology Semesta]
梆 175.100.72.202:5678 1092ms KH [VIETTEL (CAMBODIA) PTE., LTD]
桂 154.72.78.146:5678 4494ms TZ [RAHA-LTZ]
梆 36.37.189.64:5678 5012ms KH [VIETTEL (CAMBODIA) PTE., LTD]
桂 118.172.201.67:54786 2142ms TH [TOT Public Company Limited]
ю 131.0.210.41:4153 4451ms BR [D. A. SERVIOS DE TELECOMUNICACOES EIRELI]
ю 179.125.172.177:4153 4222ms BR [Desktop Sigmanet Comunica莽茫o Multim铆dia Ltda]
 88.116.137.130:10801 2607ms AT [HIGHWAY194]
梆 103.120.135.222:5678 2203ms KH [Angkor Data Communication]
 103.198.93.150:5678 3266ms ID [JURAGANNET]
 202.129.187.232:5678 4874ms ID [PT Media Akses Global Indo]
桂 176.235.99.183:5678 2470ms TR [Tellcom Iletisim Hizmetleri A.S.]
桂 217.11.188.180:5678 4652ms TJ [Babilon-T]
 115.242.204.122:5678 4935ms IN [Reliance Jio Infocomm Limited]
 200.116.198.140:37092 7015ms CO [EPM Telecomunicaciones S.A. E.S.P]
ю 109.105.205.231:5678 4557ms BA [Split network]
 180.178.93.146:5678 770ms ID [PT Widya Intersat Nusantara]
 81.16.8.108:5678 5354ms AM [Ucom]
 217.219.35.246:4153 2813ms IR [Iran Telecommunication Company PJS]
 200.24.157.33:5678 3955ms EC [Nedetel S.A.]
ю 182.160.124.106:5678 2833ms BD [Aamra Networks Limited]
 94.198.211.217:5678 3237ms  []
佛 46.97.238.46:5678 2195ms RO [Vodafone RO]
叼 176.103.34.179:5678 4739ms PL [Esnet S.C.]
桂 1.179.201.189:5678 2103ms TH [TOT Public Company Limited]
 103.47.238.198:5678 3393ms IN [Gigantic Internet Services Pvt. Ltd]
 101.255.69.142:5678 954ms ID [PT Remala Abadi]
拆 41.77.22.107:5678 5551ms MG [Airtel Madagascar]
 37.252.66.240:5678 3695ms AM [Ucom Cjsc]
梆 27.109.117.219:5678 996ms KH [Cambodian Singmeng Telemedia CO]
梆 27.109.116.187:5678 2900ms KH [Cambodian Singmeng Telemedia CO]
 202.145.13.204:5678 2442ms ID [PT UniNET Media Sakti]
拆 77.89.201.70:5678 1637ms MD [Orange Moldova Network]
 138.117.141.27:8888 3378ms GT [Ufinet Panama S.A.]
吼 159.224.218.248:5678 2857ms UA [Triolan]
 200.116.198.160:58927 3029ms CO [EPM Telecomunicaciones S.A. E.S.P]
佛 176.215.237.166:5678 5756ms RU [JSC "ER-Telecom Holding"]
梆 203.189.137.66:5678 1127ms KH [ONLINE]
桂 154.72.88.102:5678 4029ms TZ [RAHA-LTZ]
ю 109.120.218.158:10801 1665ms BG [NETWORX-BG Ltd]
ю 177.36.185.178:5678 4117ms BR [GGNET TELECOMUNICAES LTDA]
ю 177.36.186.130:5678 6286ms BR [GGNET TELECOMUNICAES LTDA]
葛 80.81.232.145:5678 6326ms SK [S.A. NET]
 202.138.252.209:5678 3816ms ID [PT Melvar Lintasnusa]
梆 154.79.248.156:5678 5183ms KE [Airtel KE Mobile Broadband]
ю 190.12.139.0:5678 3541ms BR [Clickcedro Provedor De Internet]
 5.160.39.226:5678 5437ms IR [RSPN]
 36.89.74.140:5678 2034ms ID [PT. Telekomunikasi Indonesia]
 175.158.61.164:5678 4752ms ID [CBNNAP]
ю 189.50.252.173:5678 4091ms BR [Process Solutions Tecnologia E Inf. Eireli - EPP]
 36.89.230.85:5678 1953ms ID [PT. Telekomunikasi Indonesia]
 176.105.219.2:3629 6644ms  []
 111.92.166.34:5678 3043ms ID [Jogja Medianet]
 91.186.102.169:1080 4606ms  []
 103.14.251.123:4145 4055ms  []
 203.217.169.89:4153 2227ms  []
 134.19.254.2:4153 3946ms  []
 194.28.56.180:3629 3402ms  []
 179.125.172.210:4153 4038ms  []
葛 82.137.250.45:5678 2835ms SY [190 Internet Service Provider]
 58.65.245.121:3629 3848ms ID [ISATNET]
ю 45.70.195.77:5678 3360ms BR [EXPAND TECNOLOGIA E INFORMTICA LTDA]
ю 27.147.155.21:5678 5275ms BD [Link3 Technologies Limited]
梆 58.97.194.199:5678 1598ms KH [OpenNet ISP Cambodia]
 168.227.145.35:5678 5309ms AR [IP路RED]
 193.86.24.146:5678 3059ms CZ [T-Mobile Czech Republic a.s.]
ю 190.89.88.90:5678 6198ms BR [Maxnet Provedor De Internet Ltda]
ю 123.49.53.170:5678 3361ms BD [Bangladesh Telecommunications Company Ltd.]
 190.69.24.18:5678 4668ms CO [Colombia Telecomunicaciones S.a. ESP]
ю 191.242.193.135:5678 3772ms BR [Renard Mendes Batista Me]
 190.146.60.76:5678 3178ms CO [Telmex Colombia S.A.]
 194.208.13.7:5678 4114ms AT [Russmedia IT GmbH]
 190.210.141.170:5678 4130ms AR [NSS S.A.]
 190.184.144.222:5678 6044ms CO [Telebucaramanga S.a. E.S.P.]
 124.158.179.254:5678 4239ms ID [PT Jala Lintas Media]
 103.70.159.139:5678 3879ms IN [speednet]
ю 191.242.193.246:5678 4548ms BR [Renard Mendes Batista Me]
叼 46.174.235.91:5678 3175ms PL [Interkam Szczepanik Spolka Komandytowa]
佛 217.197.252.154:4145 2052ms RU [CJSC TSI Service]
ю 45.234.100.102:1080 3293ms BR [Fortlink Internet Corporativa]
佛 195.222.173.102:3629 4205ms RU [PAO Vimpelcom - formely DirectNet]
 190.210.77.46:5678 7143ms AR [NSS S.A.]
 103.67.188.22:5678 3548ms IN [Vilite Multimedia Private Limited]
 219.83.12.54:5678 1413ms ID [Customer Of IndosatM2]
桂 122.154.193.78:5678 3035ms TH [CAT Telecom Public Company Limited]
ю 118.179.87.170:5678 958ms BD [Dhakacom Limited]
ю 187.84.146.210:5678 5058ms BR [Tecnoasp Tecnologia e Servi锟os de Comunica锟斤拷o Ltda]
佛 188.43.5.113:3629 2130ms RU [TRANS-TELECOM]
叼 188.93.235.3:5678 2813ms PT [dotsi - Solucoes Internet]
叼 190.128.136.6:5678 3485ms PY [Telecel S.A.]
 190.85.212.170:5678 4991ms CO [Telmex Colombia S.A.]
 206.84.99.205:5678 1849ms ID [AGIS]
ю 187.122.248.100:5678 3525ms BR [Claro S.A.]
叼 94.42.125.16:5678 6158ms PL [GTS Poland Sp. z o.o]
仇 103.235.199.46:5678 2256ms NP [CCNEP]
 95.80.182.76:5678 7088ms IR [Bozorg Net-e Aria]
ю 45.185.236.9:5678 3949ms BR [Internet Vira NET Eireli]
 203.77.233.17:5678 1855ms ID [PT. Total Info Kharisma]
叼 181.94.246.125:4153 3955ms PY [N煤cleo S.A]
ю 187.19.150.214:5678 3194ms BR [Brisanet Servicos De Telecomunicacoes Ltda]
ю 187.87.198.250:3629 4200ms BR [Screen Saver Informtica LTDA]
桂 61.19.41.177:5678 2366ms TH [CAT Telecom Public Company Limited]
佛 194.38.3.242:5678 3904ms RU [Nikolay Olegovich Tokarev]
 186.97.233.58:5678 3789ms CO [Colombia M贸vil]
吼 216.21.162.200:5678 2525ms US [Google Fiber Inc.]
拆 187.190.59.209:5678 3453ms MX [Total Play Telecomunicaciones SA De CV]
梆 58.97.194.206:5678 4053ms KH [OpenNet ISP Cambodia]
梆 49.156.42.186:5678 3960ms KH [WiCAM Corporation Ltd]
梆 49.156.39.162:5678 1524ms KH [WiCAM Corporation Ltd]
梆 49.156.38.126:5678 1283ms KH [WiCAM Corporation Ltd]
 213.32.255.222:5678 3660ms IQ [Kurdistan Net Company for Computer and Internet Ltd.]
 95.178.108.189:5678 2145ms FR [Appliwave SAS]
 203.77.239.218:5678 1822ms ID [PT. Total Info Kharisma]
ю 187.19.150.81:5678 4299ms BR [Brisanet Servicos De Telecomunicacoes Ltda]
桂 195.175.87.14:4153 1931ms TR [TTnetTurkTelekom]
叼 46.174.239.123:5678 2730ms PL [Interkam Szczepanik Spolka Komandytowa]
 181.129.134.138:5678 3145ms CO [EPM Telecomunicaciones S.A. E.S.P.]
叼 46.174.236.32:5678 5626ms PL [Interkam Szczepanik Spolka Komandytowa]
拆 93.115.138.250:5678 2029ms MD [JSC MOLDTELECOM SA]
叼 46.174.234.96:5678 4685ms PL [Interkam Szczepanik Spolka Komandytowa]
叼 46.174.234.67:5678 1841ms PL [Interkam Szczepanik Spolka Komandytowa]
 213.135.12.27:5678 3347ms DE [intersaar GmbH]
 210.210.158.37:5678 1733ms ID [CBN]
火 210.245.52.62:5678 1840ms VN [Vietnam Internet Network Information Center]
桂 212.98.235.50:4153 2896ms TR [Borusan Telekom]
ю 187.49.61.192:5678 3347ms BR [F1net Ltda]
叼 122.52.187.137:5678 1981ms PH [Philippine Long Distance Telephone Co.]
 125.213.194.26:5678 6783ms AF [Government Communications Network]
吼 91.234.227.135:5678 5945ms UA [Sipcom Ltd.]
吼 216.21.161.185:5678 2985ms US [Google Fiber Inc.]
佛 212.233.105.14:5678 3636ms RU ["AMT GROUP TELECOM" Limited Liability Company]
ю 186.235.127.57:5678 5044ms BR [webwise telecomunica??es Ltda]
 213.32.254.112:5678 2282ms IQ [Kurdistan Net 3]
梆 95.161.197.142:5678 3745ms KZ [Obit Telecommunications]
ю 187.105.4.244:4153 5456ms BR [Claro S.A.]
ю 187.1.89.154:5678 3368ms BR [Vogel Solues em Telecom e Informtica S/A]
叼 89.228.128.216:5678 3009ms PL [Multimedia Polska S.A.]
梆 45.201.132.232:5678 2148ms KH [King Technologies Co]
 91.98.64.222:5678 2506ms IR [Pars Online PJS]
 181.49.212.122:5678 3492ms CO [Telmex Colombia S.A.]
 45.73.0.118:5678 2256ms CA [Videotron Telecom Ltee]
ю 45.71.239.91:5678 4233ms BR [LD PRODUTOS DE INFORMATICA EIRELI - ME]
吼 94.179.131.142:5678 3324ms UA [UKRTELECOM]
 186.87.179.54:5678 4036ms CO [Telmex Colombia S.A.]
 181.49.169.182:5678 6467ms CO [Telmex Colombia S.A.]
ю 203.202.255.236:5678 4988ms BD [Aamra Networks Limited]
吼 206.126.57.190:5678 5705ms US [Networks On-Line]
ю 187.87.199.170:3629 4129ms BR [Screen Saver Informtica LTDA]
 43.251.217.46:5678 4950ms IN [EMC Square Teleinfra Pvt Ltd]
ю 45.164.197.22:5678 4279ms BR [Jsouzanet Telecom]
梆 43.245.217.254:5678 1974ms KH [WiCAM Corporation Ltd]
 213.250.198.66:4145 3186ms CZ [Fortech s.r.o]
ю 168.228.207.98:5678 4741ms BR [Advanx Informatica Ltda]
ю 186.216.203.162:5678 5521ms BR [YIPI Telecom LTDA.]
梆 212.42.116.161:5678 3843ms KG ["ElCat" Ltd.]
叼 213.6.68.94:5678 1867ms PS [Palestine Telecommunications Company]
 186.138.198.99:5678 5099ms AR [Telecom Argentina S.A]
吼 31.128.235.92:5678 3445ms UA ["Merlin-Telekom" LLC]
仇 110.44.126.24:5678 5504ms NP [Vianet Communications Pvt. Ltd]
仇 110.44.126.221:5678 1990ms NP [Vianet Communications Pvt. Ltd]
 213.32.252.134:5678 3786ms IQ [Kurdistan Net 2]
 110.172.174.240:5678 4139ms IN [World Phone Internet Service Pvt. Ltd.]
ю 187.122.248.194:5678 7504ms BR [Claro S.A.]
 203.210.84.205:5678 1917ms ID [Infrastruktur STARNET]
梆 110.74.195.149:5678 1897ms KH [EZECOM limited]
 203.77.239.217:5678 7860ms ID [PT. Total Info Kharisma]
ю 49.0.34.50:10801 2206ms BD [Always On Network Bangladesh Ltd.]
 181.49.193.93:5678 2774ms CO [Telmex Colombia S.A.]
拆 41.77.23.120:5678 5296ms MG [Airtel Madagascar]
 36.89.186.131:5678 5925ms ID [PT. Telekomunikasi Indonesia]
 201.221.133.122:5678 2762ms CO [Telebucaramanga S.a. E.S.P]
梆 203.176.139.122:5678 1783ms KH [Angkor Data Communication]
火 203.205.29.108:5678 2193ms VN [CMC Telecom Infrastructure Company]
吼 109.87.46.125:5678 2562ms UA [Triolan]
ю 168.232.220.1:4153 4188ms BR [Netfalcon Acesso A Internet Ltda. - ME]
叼 190.128.148.102:5678 4485ms PY [Telecel S.A.]
 88.81.91.82:5678 3927ms CZ [Nordic Telecom Regional s.r.o.]
 89.47.30.4:4145 1867ms ES [UNI2]
ю 179.191.15.110:5678 3543ms BR [Atalink Telecomunicacoes]
叼 91.224.196.171:5678 3436ms PL [Protonet - Piek]
ю 129.205.196.222:5678 7960ms BW [BOTSWANA FIBRE NETWORKS (Proprietary) Limited]
 203.166.206.76:5678 1957ms ID [CENTRIN]
桂 61.19.41.10:5678 1058ms TH [CAT Telecom Public Company Limited]
ю 186.121.214.250:5678 6429ms BO [AXS Bolivia S. A.]
ю 191.7.215.246:5678 5006ms BR [Online Servicos De Telecomunicacoes Ltda]
ю 181.188.131.135:5678 4600ms BO [Telef贸nica Celular de Bolivia S.A.]
佛 31.207.223.107:3629 6751ms RU [Intersvyaz-2 JSC]
梆 124.248.190.237:5678 2496ms KH [COGETEL Co., Ltd]
 185.8.150.144:4145 4210ms IT [DIGITAL TELECOMMUNICATION SERVICES 3th]
梆 124.248.186.230:5678 3907ms KH [COGETEL Co., Ltd]
桂 95.0.206.54:5678 2122ms TR [Turk Telekomunikasyon Anonim Sirketi]
 124.158.167.171:5678 5227ms ID [ICON+]
 91.187.112.173:5678 3268ms AL [Ipko Network Peja PoP]
 186.97.246.178:5678 2818ms CO [Colombia M贸vil]
ю 123.200.9.30:5678 4402ms BD [Link3 Technologies Limited]
叼 203.177.101.202:5678 5028ms PH [Globe Telecom]
ю 27.147.154.118:5678 3689ms BD [Link3 Technologies Limited]
ю 123.200.4.50:5678 2123ms BD [Link3 Technologies Limited]
 27.123.4.238:5678 2938ms ID [PT Tele Globe Global]
[...]
火 138.122.7.25:55170 3302ms VE [Lan-online C.A.]
 45.118.115.73:1089 673ms ID [PT Citra Jelajah Informatika]
 151.0.173.145:59729 2489ms IT [Fastweb Networks]
ю 177.30.63.43:4153 3439ms BR [TIM S/A]
拆 37.26.136.181:39323 3221ms MD [JSCC Interdnestrcom]
葛 82.137.250.157:1099 2487ms SY [190 Internet Service Provider]
ю 177.72.6.18:4145 3884ms BR [DataSafeIT Solues em Tecnologia]
叼 213.6.66.66:57391 2576ms PS [Palestine Telecommunications Company]
ю 109.105.205.232:39903 4702ms BA [Split network]
佛 95.154.75.180:45735 5304ms RU [OCTOPUSNET-NAT-POOL13 1bn]
 201.184.152.138:44742 4034ms CO [EPM Telecomunicaciones S.A. E.S.P.]
ю 138.99.93.224:4145 3564ms BR [Fgtech Informatica Ltda]
 202.154.191.58:4145 828ms ID [PT SOLNET INDONESIA]
 152.204.128.46:35483 3018ms CO [Colombia Telecomunicaciones S.a. ESP]
 103.26.213.117:4153 1260ms ID [GARUDAINFORMATIKA]
 46.107.229.132:10801 2912ms HU [Szatmarnet]
 62.99.178.46:43636 5341ms AT [UPC Austria GmbH]
 103.87.228.84:4145 771ms ID [ZITLINE]
桂 212.156.86.38:4145 1954ms TR [TurkTelecom]
吼 62.122.201.246:50129 2451ms UA [Uteam LTD]
佛 95.172.44.186:3629 3318ms RU [LLC MegaMax]
ю 82.103.118.42:1099 3018ms BG [A1 Bulgaria EAD]
 36.91.136.10:4153 1713ms ID [PT Telekomunikasi Indonesia]
桂 182.52.70.117:4145 995ms TH [TOT Public Company Limited]
筐 41.160.100.204:1080 3265ms ZA [Neotel GAU]
ю 138.0.207.18:38328 4229ms BR [L. Garcia Comunicaes ME]
叼 185.51.92.103:51327 2876ms PT [BLU, S.A.]
火 221.121.12.238:47012 4965ms VN [STS]
 81.17.81.34:4145 2094ms AZ [Bakinternet ISP]
佛 185.17.134.149:61535 6775ms RU [JSC Elektrosvyaz]
ю 82.103.116.126:4153 3050ms BG [A1 Bulgaria EAD]
梆 119.82.252.106:40782 2950ms KH [EZECOM limited]
ю 45.6.15.79:4145 6148ms BR [G-link Telecom]
ю 186.192.253.71:4145 4264ms BR [Conectlan Internet]
吼 185.94.219.160:1080 2702ms UA [LITECH-ISP]
 199.119.74.245:4145 3349ms CA [ELPC]
ю 170.247.43.142:32812 6192ms BR [Westlink Tecnologia E Comunicacao Ltda. - ME]
佛 79.101.106.74:33608 2701ms RS [TELEKOM-SRBIJA]
 79.106.34.2:4145 3698ms AL [Albtelecom Sh.a.]
ю 180.211.162.114:44923 2110ms BD [Bangladesh Telegraph & Telephone Board]
ю 177.220.226.122:55541 4610ms BR [Vogel Solues em Telecom e Informtica S/A]
ю 45.4.51.68:63253 5230ms BR [Opengate Informatica Ltda - ME]
 103.142.165.241:4145 4250ms IN [All Time Tele Infra Pvt Ltd]
 45.191.157.22:4153 4804ms AR [Loganet SRL]
佛 188.247.39.14:43032 2596ms RU [Unico network]
吼 141.164.122.181:5678 3095ms US [LocalTel Communications]
 201.199.92.12:4153 4469ms CR [Instituto Costarricense de Electricidad y Telecom.]
吼 50.242.100.89:32100 2703ms US [Comcast Cable Communications, LLC]
 200.83.12.252:4153 4042ms CL [VTR BANDA ANCHA S.A.]
 43.248.24.158:41705 2470ms ID [Neuviz]
仇 124.41.213.201:54806 1261ms NP [WorldLink Communications]
 82.99.203.78:58523 4052ms IR [ParsOnline Co]
桂 58.9.128.6:4153 1222ms TH [True Internet Corporation CO. Ltd.]
桂 171.100.8.82:49181 2466ms TH [True Internet Corporation CO. Ltd.]
ю 187.111.160.8:58315 7025ms BR [super midia tv a cabo ltda]
叼 202.57.46.140:4145 3071ms PH [PhilCom Corporation]
吼 38.133.200.94:31596 6093ms US [Single Digits Inc]
 201.184.75.210:4145 2842ms CO [EPM Telecomunicaciones S.A. E.S.P.]
火 1.53.137.84:4145 2736ms VN [Vietnam Internet Network Information Center]
梆 121.134.198.156:4145 1520ms KR [Korea Telecom]
佛 212.107.237.28:4145 7445ms RU [OOO Digital Technologies]
 31.209.105.238:4145 3598ms CY [Multimax Iletisim Limited]
桂 110.77.197.177:4145 727ms TH [CAT-BB]
 103.250.148.82:41889 1373ms IN [GTPL Bule bell Network Pvt. Ltd]
佛 37.235.153.214:4145 3819ms RU [LANTA Ltd]
ю 143.255.52.102:53043 5840ms BR [Oxente NET Empreendimentos Ltda - EPP]
佛 46.254.217.67:61781 4425ms RU [Ivanteevskie telecommunicacii Ltd]
佛 37.235.150.30:4145 3525ms RU [LANTA Ltd]
 103.142.164.37:4145 1947ms IN [All Time Tele Infra Pvt Ltd]
吼 77.244.42.178:4145 3702ms UA [Volia Kharkov]
葛 195.68.235.96:4153 3722ms SK [Prva internetova]
 181.129.62.2:47377 6595ms CO [EPM Telecomunicaciones S.A. E.S.P.]
吼 82.207.59.154:3629 3219ms UA [UKRTELECOM]
佛 31.41.225.205:45067 3284ms RU [PE Pivovar Aleksej Nikolaevich]
桂 125.25.184.10:4145 1603ms TH [TOT Public Company Limited]
ю 91.181.235.31:4145 1492ms BE [Proximus]
 41.190.232.36:36926 4115ms CD [Orioncom SPRL]
 181.236.221.138:4145 5935ms CO [Colombia Telecomunicaciones S.a. ESP]
吼 193.105.62.11:58973 1725ms UA [PE Brunarsky Andrey Romanovich]
ю 41.223.234.116:37259 4761ms BF [Alink Telecom Faso v]
ю 200.225.140.130:36564 7539ms BR [Carangola Telecomunicacoes Eireli]
葛 41.223.108.13:1080 3135ms SO [Golis Telecom Somalia]
桂 1.20.220.79:4145 1254ms TH [TOT-MOBILE]
梆 121.65.173.82:4145 2160ms KR [LG DACOM Corporation]
吼 184.105.134.166:48324 2522ms US [Hurricane Electric]
佛 81.89.69.37:4153 2484ms RU [CJSC "Gazprom telecom"]
 103.212.93.193:45639 4328ms IN [Best Telnet Services Private Limited]
佛 185.123.194.28:3629 3238ms RU [OOO Kurier]
吼 93.73.3.113:3629 2220ms UA [Volia Kiev]
仇 103.28.86.241:57230 3203ms NP [Alternate ISP]
叼 93.105.171.100:4153 5169ms PL [Vectra S.A]
 80.92.181.3:44550 2939ms GE [Advertised to Internet]
ю 27.147.217.194:51873 7822ms BD [Link3 Technologies Limited]
吼 185.43.249.148:39316 2972ms UA [Pitline ltd]
 85.117.56.74:4145 2467ms GE [Caucasus Online Ltd.]
佛 92.86.33.126:1080 3458ms RO [Romtelecom]
叼 185.81.106.52:3629 3109ms PL [Multinet 24 Sp. z o.o]
佛 84.22.144.161:4153 3349ms RU [Igra-Service LLC]
佛 176.100.115.172:4153 4366ms RU [REAL]
火 118.70.220.116:4145 1748ms VN [Vietnam Internet Network Information Center]
 185.106.44.57:4153 1760ms ES [Riotelecomm S.L. 2]
ю 177.22.111.246:4145 3438ms BR [Speed Travel Comunicao Multimdia Ltda - ME]
吼 95.158.63.61:4145 1607ms UA [Company with additional responsibility ""BEST"]
吼 148.77.34.200:54321 3136ms US [Optimum Online]
ю 117.58.245.66:61393 3135ms BD [Always On Network Bangladesh Ltd]
 1.186.40.177:39651 1374ms IN [D-VoiS Broadband Private Limited]
佛 84.243.108.186:3629 3603ms RO [ARtelecom]
桂 118.172.201.105:36118 4264ms TH [TOT Public Company Limited]
 103.31.45.173:4153 2838ms ID [Media Antar Nusa PT.]
 182.16.171.65:51459 1712ms ID [PT iForte Global Internet]
拆 41.75.113.217:1080 3593ms MW [Skyband Corporation Ltd]
 103.57.80.40:4145 5035ms IN [Allnet Broadband Network Pvt Ltd]
拆 187.141.129.86:4153 2386ms MX [Uninet S.A. de C.V.]
 103.255.53.98:55165 4762ms ID [Customer Vsat Broadband]
 103.147.119.3:4145 1123ms ID [PT.Bestcamp Prima Data]
佛 46.227.162.98:33802 3451ms RU [Avelacom]
ю 177.69.45.188:33219 7113ms BR [ALGAR TELECOM S/A]
 181.129.52.156:44665 4040ms CO [EPM Telecomunicaciones S.A. E.S.P.]
 36.89.246.187:4145 5027ms ID [PT. Telekomunikasi Indonesia]
拆 43.228.131.115:32992 3146ms MN [MCS Com Co Ltd]
 175.106.17.222:43409 1387ms ID [SOLONET]
ю 177.184.139.81:36270 6544ms BR [Sobralnet Servicos E Telecomunicacoes Ltda - ME]
火 210.245.51.20:4145 2120ms VN [FPT-STATICIP]
ю 119.18.146.139:4153 5189ms BD [BBTS Network]
梆 197.232.43.224:1080 1727ms KE [Jamii Telecommunications Limited]
叼 193.106.231.145:4145 3061ms PL [FIBERLINK Sp. z o.o.]
筐 41.170.65.40:4153 4225ms ZA [Liquid Telecommunications South Africa (Pty) Ltd]
桂 110.78.164.234:4153 7934ms TH [CAT-BB]
 61.8.75.186:1080 898ms ID [PT Aplikanusa Lintasarta]
 103.94.7.250:4145 2108ms ID [ICONPLN]
吼 75.109.248.175:8080 2057ms US [Suddenlink Communications]
 154.61.227.8:64312 1926ms ES [AVATEL & WIKIKER TELECOM S.L.]
仇 169.239.236.101:10801 3095ms NG [Gutti Global Networks]
 117.102.124.234:4145 884ms ID [Biznet Networks]
 117.206.155.82:34883 5505ms IN [BSNL Internet]
 119.10.177.90:4145 960ms ID [PT. Power Telecom Indonesia]
佛 37.205.81.41:4145 2376ms RU [ZSTTK]
叼 122.55.202.100:4145 2156ms PH [Philippine Long Distance Telephone Co.]
ю 103.114.98.205:1080 2831ms BD [Skynet Chowmuhani]
 103.88.221.194:46450 1186ms IN [Vortex Netsol Private Limited]
 202.77.120.38:59321 4468ms ID [LINKNET]
ю 202.136.88.68:1080 4494ms BD [Circle Network]
桂 118.174.232.239:52796 1489ms TH [TOT Public Company Limited]
ю 168.194.83.18:44328 7184ms BR [Celerium Comunicacoes Ltda]
 125.165.179.254:53639 2528ms ID [PT. TELKOM INDONESIA]
 36.37.104.98:34040 1822ms ID [LINTASARTA]
叼 37.128.107.98:4145 3941ms PL [Netia SA]
桂 101.51.121.29:4153 3040ms TH [TOT Public Company Limited]
 181.129.144.59:3629 3532ms CO [EPM Telecomunicaciones S.A. E.S.P.]
筐 41.180.82.158:4153 4443ms ZA [X-dsl Networking Solutions]
 62.201.233.59:4145 2409ms IQ [FTTH-subrange1]
ю 187.19.127.178:4145 3472ms BR [Unidasnet Comunicacoes Ltda]
 182.253.93.5:4145 2024ms ID [Biznet Networks]
吼 37.57.3.244:1080 3625ms UA [Triolan]
吼 91.213.119.246:46024 2141ms UA [PP "Vinasterisk"]
桂 176.235.99.103:5678 1944ms TR [Tellcom Iletisim Hizmetleri A.S.]
佛 188.246.181.50:4145 3232ms RU [OOO WestCall Ltd]
吼 91.250.61.113:3629 3700ms UA [Leased line ISP Format]
 181.166.106.224:42315 5589ms AR [Telecom Argentina S.A]
叼 152.32.84.108:4153 3515ms PH [ComClark Network & Technology Corp]
 36.94.8.19:4153 5020ms ID [PT. Telekomunikasi Indonesia]
 36.95.16.93:5678 4721ms ID [PT. Telekomunikasi Indonesia]
拆 77.89.204.254:4145 2049ms MD [Orange Moldova Network]
 31.24.205.70:4153 5388ms IR [Bahar Samaneh Shargh]
佛 80.65.28.57:30924 3721ms RU [Orion Telecom LLC]
梆 211.196.195.46:4145 1357ms KR [Korea Telecom]
 103.83.174.95:4145 1441ms ID [PT Netciti Persada]
佛 79.101.45.94:56921 2011ms RS [TELEKOM-SRBIJA]
 36.91.45.10:51299 4811ms ID [PT. Telekomunikasi Indonesia]
 36.91.54.25:55543 3495ms ID [PT Telekomunikasi Indonesia]
 36.89.192.115:55337 1010ms ID [PT. Telekomunikasi Indonesia]
桂 182.52.63.95:4153 1509ms TH [TOT Public Company Limited]
佛 81.163.254.104:3629 4105ms RU [Koltushsky Internet Ltd]
火 117.4.107.199:51796 2178ms VN [Viettel Corporation]
ю 131.221.148.78:4153 6225ms BR [Direct Fibra]
佛 89.251.144.37:30048 3481ms RU [MTS PJSC]
ю 164.163.21.10:8291 4134ms BR [Edriana Augusta Mendonca De Oliveira Eireli - ME]
吼 134.249.151.4:54965 7296ms UA [Kyivstar GSM]
ю 189.38.3.22:4153 3373ms BR [Britis Telecom LTDA]
 36.89.149.173:4145 650ms ID [PT. Telekomunikasi Indonesia]
拆 201.143.32.82:4153 2231ms MX [Telefonos del Noroeste, S.A. de C.V.]
 170.80.91.3:4145 4126ms CR [Corebases S.A]
ю 177.54.195.48:4145 4721ms BR [MT.NET - Servios de Internet Ltda-ME]
 36.89.17.227:1080 783ms ID [PT. Telekomunikasi Indonesia]
佛 91.197.135.132:4145 5163ms RU [Comfort XXI Century Ltd.]
梆 113.130.126.2:32554 815ms KH [EZECOM limited#7D]
拆 202.21.110.42:4153 1913ms MN [Mobinet LLC]
吼 37.57.15.43:47233 3779ms UA [Triolan]
吼 178.216.2.229:1488 3290ms UA [Chks LLC]
 36.67.223.231:5678 1978ms ID [PT. Telekomunikasi Indonesia]
 185.99.177.22:4153 1784ms CZ [ISP Alliance a.s.]
火 1.53.137.92:4145 1883ms VN [Vietnam Internet Network Information Center]
 131.221.165.53:4153 3441ms CL [Pacifico Cable SPA.]
 168.181.121.195:57010 6348ms HN [Enred S.de.R.L]
 36.67.63.239:38071 855ms ID [PT. Telekomunikasi Indonesia]
 86.111.144.10:4145 2560ms IQ [GCC-F1]
 36.66.172.121:37552 1134ms ID [PT. Telekomunikasi Indonesia]
桂 202.183.155.242:4153 1729ms TH [DaiwaAsia]
 36.67.28.114:2580 4617ms ID [PT. Telekomunikasi Indonesia]
佛 176.197.174.182:4145 5666ms RU [Goodline.info]
 37.17.169.80:46768 3081ms HU [in Szervernet]
ю 189.1.165.61:4153 4031ms BR [Hostlocation Ltda]
ю 177.124.211.250:4153 4737ms BR [Mundivox LTDA]
 103.253.154.155:41762 5476ms IN [Airnat IT Solutions PVT LTD]
佛 77.241.20.215:55915 3913ms RU [Limited liability company]
桂 182.53.197.156:43574 3218ms TH [TOT Public Company Limited]
 31.209.96.173:51688 4515ms CY [Multimax Iletisim Limited]
仇 196.50.7.11:4153 3600ms NG [CUSTOMER VI]
ю 103.9.114.194:39204 5322ms BD [Aamra Technologies Limited]
桂 182.52.51.10:35719 1338ms TH [TOT Public Company Limited]
吼 46.172.69.163:32047 6820ms UA [Kharkov RostNET]
ю 118.179.55.190:4153 2184ms BD [Dhakacom Limited]
 213.16.81.182:35559 1664ms HU [Invitech ICT Services Kft.]
叼 31.179.224.42:43840 3949ms PL [UPC Polska Sp. z o.o]
佛 176.98.156.64:4145 3200ms RU [PE Aliev Magomed Kadievich]
佛 87.103.196.236:1080 3593ms RU [PJSC Rostelecom]
ю 45.71.244.2:4153 4215ms BR [OpenNET Telecom e Informatica EIRELI - ME]
 183.87.70.210:36185 5201ms IN [Syscon Infoway Pvt. Ltd]
佛 178.19.247.25:41624 2952ms RU [CityLink Ltd]
佛 192.162.193.243:54313 4467ms RU [Sigma-Net Ltd]
吼 31.43.33.56:4153 3917ms UA [Ukrainian Telecommunication Group LLC]
佛 31.15.89.51:1099 2847ms RU [MTS PJSC]
葛 5.22.154.50:32127 2519ms SK [NEVERNET, s.r.o.]
佛 31.28.99.25:55767 2022ms RU [INTERRA telecommunications group]
梆 114.108.177.104:60984 2774ms KR [LG DACOM KIDC]
桂 95.9.194.13:30436 4311ms TR [TurkTelekom]
吼 77.120.163.103:42208 3071ms UA [Volia Kharkov]
ю 86.57.181.122:51801 3477ms BY [Republican Unitary Telecommunication Enterprise Beltelecom]
桂 101.109.41.137:4153 2930ms TH [TOT Public Company Limited]
ю 27.147.155.70:52596 2150ms BD [Link3 Technologies Limited]
佛 31.10.110.132:4145 2102ms RU [CJSC "AVIEL"]
梆 110.74.193.108:55762 1131ms KH [EZECOM limited]
叼 185.16.32.66:46997 2797ms PL [Netkom Uslugi Informatyczne Maciej Zukowski]
ю 177.223.58.68:48733 4048ms BR [Star Telecom S/A]
 62.94.192.101:1080 2295ms IT [Irideos S.P.A]
吼 62.122.201.170:31871 1813ms UA [Uteam LTD]
佛 78.29.32.35:3629 4757ms RU [Intersvyaz-2 JSC]
 90.162.115.178:4145 1791ms ES [Uni2]
 36.66.36.252:4153 1976ms ID [PT. Telekomunikasi Indonesia]
桂 118.174.47.182:4145 3760ms TH [TOT Public Company Limited]
桂 183.88.214.88:4145 1403ms TH [Triple T Internet Company Limited]
 94.139.161.18:4145 5105ms IR [Farabord Dadeh Haye Iranian Co.]
ю 185.114.183.217:10801 3127ms BG [internet pools]
 27.106.84.186:4153 3009ms IN [Syscon Infoway Pvt. Ltd]
 186.1.182.194:4153 4615ms CO [Dialnet de Colombia S.A. E.S.P.]
吼 197.221.158.186:1080 3851ms UG [Airtel Uganda]
桂 176.235.99.114:43919 3046ms TR [Tellcom Iletisim Hizmetleri A.S.]
 194.213.43.166:59316 2190ms CZ [T-Mobile Czech Republic a.s.]
火 27.72.122.228:51067 1986ms VN [Newass2011xDSLHN]
叼 200.48.129.124:31246 4231ms PE [Telefonica del Peru S.A.A.]
 162.247.18.162:4153 3052ms CA [Fidalia Networks Inc.]
佛 94.247.241.70:51006 3438ms RU [Teleport Sankt-Peterburg Networks]
吼 24.172.34.114:60133 5737ms US [Charter Communications Inc]
 103.69.20.43:4145 2490ms IN [Allnet Broadband Network Pvt Ltd]
佛 92.241.17.80:4145 4078ms RU [Cifrovoy Dialog-T network]
佛 78.81.245.153:4655 2376ms RU [Datacom Network in Pskov city]
 36.67.98.158:4153 1747ms ID [PT. Telekomunikasi Indonesia]
吼 50.192.49.5:32100 4453ms US [Comcast Cable Communications]
桂 101.51.141.20:4153 1031ms TH [TOT Public Company Limited]
佛 109.68.189.22:54643 2398ms RU [OOO Suntel]
佛 185.75.5.158:43131 3596ms RU [5COM-PYATIGORSK]
葛 217.145.199.45:56746 3230ms SK [Slovanet a.s.]
 77.48.137.3:50523 5271ms CZ [Vodafone Czech Republic a.s.]
火 14.160.23.139:4145 2904ms VN [VNPT-VNNIC]
 109.238.222.5:42401 3514ms CZ [Planet A, a.s.]
佛 82.200.55.38:4145 3452ms RU [ZSTTK]
 109.122.243.88:4145 4062ms IR [Farabord Dadeh Haye Iranian Co.]
吼 109.87.143.67:10801 5338ms UA [Triolan]
ю 88.213.214.254:4145 1813ms BG [Netbox LTD]
吼 12.218.209.130:13326 2324ms US [AT&T Services]
吼 12.11.59.114:1080 2432ms US [AT&T Services]
佛 92.84.56.10:47054 2506ms RO [Romtelecom Customers ADSL Dynamic 1st]
佛 5.166.57.222:49710 1904ms RU [CJSC "ER-Telecom Holding" Yekaterinburg branch]
叼 193.239.101.7:4145 2384ms PL [SOLARME]
 202.51.112.169:5430 1498ms ID [PT iForte Global Internet]
ю 138.99.93.227:4145 3260ms BR [Fgtech Informatica Ltda]
佛 91.216.66.70:47658 3337ms RU [IP Nikolay Yankovskiy]
吼 5.58.47.25:3629 5133ms UA [Columbus]
ю 131.161.68.41:35944 3147ms BR [MS NUNES INFORMAO TECNOLOGICA LTDA]
 43.251.214.14:41993 2561ms IN [World Phone Infrastructure services private ltd]
ю 5.32.134.226:4145 2237ms BG [Lifoet-2007 LLC]
佛 78.140.7.239:40009 2314ms RU [Limited Company Information and Consulting Agency]
ю 143.255.52.67:53043 4627ms BR [Oxente NET Empreendimentos Ltda - EPP]
ю 27.123.255.82:47094 2270ms BD [Kazi Sazzad Hossain T/A Millennium Computers & Networking]
 123.203.156.79:65528 1694ms HK [Hong Kong Broadband Network Ltd]
梆 1.212.181.131:4145 1582ms KR [LG DACOM Corporation]
 202.43.191.10:5430 4606ms ID [CEPATNET]
别 195.14.185.6:4153 2108ms LT [UAB "Baltnetos komunikacijos"]
筐 196.41.102.130:60216 4780ms ZA [Cybersmart]
ю 45.169.64.208:4145 5899ms BR [Brasil Informatica Ltda EPP]
吼 91.230.199.174:32151 6911ms UA [Elektron-Service LLC]
 2.139.162.80:4145 1782ms ES [RIMA (Red IP Multi Acceso)]
吼 200.108.196.108:4145 5296ms UY [Tecnowind S.A.]
桂 1.179.181.213:30500 3027ms TH [TOT Public Company Limited]
ю 177.137.227.14:4145 4551ms BR [Dinamica Telecomunicacoes Ltda]
 36.66.177.168:43340 1640ms ID [PT. Telekomunikasi Indonesia]
梆 36.37.180.59:1080 2138ms KH [VIETTEL (CAMBODIA) PTE., LTD]
桂 1.179.148.9:36476 2272ms TH [TOT Public Company Limited]
佛 87.255.4.21:4153 3300ms RU [BIG TELECOM CLOSED JSC]
桂 1.179.147.5:52210 4561ms TH [TOT Public Company Limited]
ю 92.247.31.37:4145 2348ms BG [A1 Bulgaria EAD]
吼 159.224.243.185:61303 1935ms UA [Content Delivery Network LTD]
叼 190.12.95.170:37209 3018ms PE [Optical Technologies S.A.C]
佛 95.140.27.135:59193 4514ms RU [Sputnik LTD]
仇 182.93.80.3:8291 2360ms NP [SUBISU D2]
 81.17.94.50:47163 2276ms AZ [Bakinternet ISP]
桂 1.20.184.75:4153 709ms TH [TOT-MOBILE]
拆 187.243.253.182:43015 3345ms MX [Mega Cable, S.A. de C.V.]
桂 182.52.51.101:4153 779ms TH [TOT Public Company Limited]
 183.87.153.98:48785 5324ms IN [Syscon Infoway Pvt Ltd. ISP]
佛 87.254.138.170:4145 3194ms RU [Comtel network]
 175.106.17.62:49238 5562ms ID [SOLONET]
 178.134.155.82:49483 3676ms GE [JSC "Silknet"]
ю 131.161.68.37:35944 5136ms BR [MS NUNES INFORMAO TECNOLOGICA LTDA]
佛 109.101.196.50:4145 2170ms RO [Romtelecom]
 202.158.49.141:39172 1096ms ID [PT. Cyberindo Aditama]
 136.232.116.2:43314 4089ms IN [Reliance Jio Infocomm Limited]
ю 201.48.62.65:4145 4951ms BR [ALGAR TELECOM S/A]
ю 187.94.16.59:56187 4546ms BR [Holistica Provedor Internet Ltda]
桂 1.20.96.30:4153 1586ms TH [TOT-MOBILE]
葛 102.128.131.72:1080 3166ms SO [SOMTEL INTERNATIONAL Ltd]
佛 176.215.190.79:4153 5108ms RU [JSC "ER-Telecom" Holding"]
ю 177.71.78.230:4153 3477ms BR [PRINSE MULTIMDIA EIRELI - EPP]
 195.175.42.18:4153 5276ms DZ [TTnetTurkTelekom]
ю 139.5.132.106:4153 1044ms BD [Geotel Bangladesh IT Ltd]
拆 1.9.213.114:4153 2631ms MY [Tmnet, Telekom Malaysia Bhd.]
桂 1.4.214.148:5678 1747ms TH [TOT Public Company Limited]
 185.37.89.7:3629 6624ms IQ [Omnnea Broadband]
叼 91.150.189.122:60647 2935ms PL [Skyware Sp. z o.o.]
吼 50.235.92.14:32100 2932ms US [Comcast Cable Communications, LLC]
 74.56.229.191:4145 3170ms CA [Le Groupe Videotron Ltee]
吼 50.237.206.174:64312 2675ms US [Comcast Cable Communications, LLC]
 186.103.154.235:4153 6663ms CL [Telefonica Empresas]
拆 77.89.251.138:4145 3353ms MD [Orange Moldova Network]
 195.226.105.219:4153 2751ms DE [1&1 Versatel Deutschland GmbH]
 197.221.90.54:56810 3606ms GH [Internet Solutions Ghana]
ю 186.211.8.1:35852 4085ms BR [PortalSAT Telecom]
火 210.245.51.15:4145 4063ms VN [FPT-STATICIP]
佛 86.34.157.3:4145 2754ms RO [Romtelecom Data Network]
 24.37.245.42:51056 2415ms CA [Le Groupe Videotron Ltee]
 43.224.10.31:6667 5548ms IN [gtpl hariom world vision]
 103.194.242.254:40247 3199ms IN [AirDesign Broadcast Media Pvt Ltd]
吼 92.249.122.108:58749 4332ms UA [Private Stock Company Sater]
佛 176.106.126.217:4153 1869ms RS [Team-Net SZR Mihajlovic Radovan Preduzetnik]
ю 203.202.253.186:58309 5286ms BD [Assigned for UTTARAPOP Broadband Customers]
桂 113.53.247.221:4153 2752ms TH [TOT Public Company Limited]
桂 118.172.181.147:51411 2531ms TH [TOT Public Company Limited]
佛 109.201.96.222:4145 3523ms RU [Informatsionnye Tekhnologii LLC]
ю 180.211.179.150:40153 3375ms BD [BTCL Info-bahan-Porject]
吼 50.207.130.198:54321 3019ms US [Comcast Cable Communications LLC]
吼 195.234.215.81:38629 2153ms UA [United Networks of Ukraine Ltd]
拆 41.190.147.158:33409 2977ms MU [Liquid Telecommunications Operations Limited]
拆 202.21.113.86:4153 2295ms MN [Mobinet Customer]
佛 37.221.204.206:35433 4356ms RU [OBIT Ltd.]
 182.23.79.162:50862 2941ms ID [PT Aplikanusa Lintasarta]
拆 41.217.219.53:54479 3815ms MW [Platinum Static Assignment]